gem5 Simulator System.  https://www.gem5.org
gem5 is copyrighted software; use the --copyright option for details.

gem5 version 23.1.0.0
gem5 compiled Apr 14 2026 12:35:32
gem5 started Apr 14 2026 13:08:20
gem5 executing on kjb, pid 861608
command line: /home/kjb/sandbox2/neo_IITP/gem5/build/ARM/gem5.opt --debug-flags=AddrRanges,PciBridge,PciDevice,PciHost,CxlDevice,CxlHost,DCOH,CXLProcessor,CXLXBar,CPU2,Cache2 --outdir /home/kjb/sandbox2/neo_IITP/output-basic -re /home/kjb/sandbox2/neo_IITP/configs-test/deprecated/example/fs.py --cpu-type=AtomicSimpleCPU --caches --l2cache --kernel=/home/kjb/sandbox/gem5.bare-metal/Simple/main.elf --disk-image=/home/kjb/sandbox/disk_image/ubuntu.img --bare-metal --dtb-filename=/home/kjb/sandbox2/neo_IITP/gem5/system/arm/dt/armv8_gem5_v1_1cpu.dtb --machine-type=VExpress_GEM5_V1 --mem-size=2GB --script=/home/kjb/sandbox2/neo_IITP/gem5/configs/boot/hack_back_ckpt.rcS

Global frequency set at 1000000000000 ticks per second
      0: system.physmem: Creating backing store for range [0:0x4000000] with size 67108864
      0: system.physmem: Mapping memory system.realview.bootmem to backing store
      0: system.physmem: Creating backing store for range [0x4000000:0x4040000] with size 262144
      0: system.physmem: Mapping memory system.realview.trusted_sram to backing store
      0: system.physmem: Creating backing store for range [0x6000000:0x8000000] with size 33554432
      0: system.physmem: Mapping memory system.realview.trusted_dram to backing store
      0: system.physmem: Creating backing store for range [0x8000000:0xc000000] with size 67108864
      0: system.physmem: Mapping memory system.realview.flash0 to backing store
      0: system.physmem: Creating backing store for range [0xc000000:0x10000000] with size 67108864
      0: system.physmem: Mapping memory system.realview.flash1 to backing store
      0: system.physmem: Creating backing store for range [0x18000000:0x1a000000] with size 33554432
      0: system.physmem: Mapping memory system.realview.vram to backing store
      0: system.physmem: Creating backing store for range [0x2e000000:0x2e008000] with size 32768
      0: system.physmem: Mapping memory system.realview.non_trusted_sram to backing store
      0: system.physmem: Creating backing store for range [0xa0000000:0x120000000] with size 2147483648
      0: system.physmem: Mapping memory system.mem_ctrls.dram to backing store
PCI Bridge namesystem.Root_Complex
      0: system.realview.pci_host: 00:04.0: Registering Bridge
      0: system.realview.pci_host: 00:05.0: Registering Bridge
      0: system.realview.pci_host: 00:06.0: Registering Bridge
      0: system.realview.pci_host: 06:00.0: Registering device
      0: system.realview.pci_host: 04:00.0: Registering device
      0: system.realview.pci_host: 05:00.0: Registering device
      0: system.realview.pci_host: 07:00.0: Registering device
      0: system.realview.pci_host: 03:00.0: Registering device
PCI Bridge namesystem.switch
      0: system.realview.pci_host: 02:00.0: Registering Bridge
      0: system.realview.pci_host: 02:01.0: Registering Bridge
      0: system.realview.pci_host: 02:02.0: Registering Bridge
      0: system.realview.pci_host: 01:00.0: Registering Bridge
      0: system.membus: Received range change from cpu_side_ports system.Root_Complex.slave
      0: system.membus: Received range change from cpu_side_ports system.bridge.cpu_side_port
      0: system.membus: Adding range [0xc000000:0x14000000] for id 0
      0: system.membus: Adding range [0x17000000:0x20000000] for id 0
      0: system.membus: Adding range [0x30000000:0x3fffffff] for id 0
      0: system.iobus_dma: Received range change from cpu_side_ports system.iobus_dma.badaddr_responder.pio
      0: system.iobus_dma: Received range change from cpu_side_ports system.iocache.cpu_side_port
      0: system.iobus_dma: Got address ranges from all responders
      0: system.iobus_dma: Adding range [0xa0000000:0x120000000] for id 0
      0: system.iobus_dma: Aggregating address ranges
      0: system.iobus_dma: -- Adding range [0xa0000000:0x120000000]
      0: system.Root_Complex.master_dma: bridge recvRangeChange was called
      0: system.Root_Complex: bridge updateRanges was called
      0: system.membus: Received range change from cpu_side_ports system.Root_Complex.slave
      0: system.tol2bus: Received range change from cpu_side_ports system.l2.cpu_side_port
      0: system.tol2bus: Got address ranges from all responders
      0: system.tol2bus: Adding range [0:0xffffffffffffffff] for id 0
      0: system.tol2bus: Aggregating address ranges
      0: system.tol2bus: -- Adding range [0:0xffffffffffffffff]
      0: system.membus: Received range change from cpu_side_ports system.mem_ctrls.port
      0: system.membus: Adding range [0xa0000000:0x120000000] for id 15
      0: system.membus: Adding snooping requestor system.iocache.mem_side_port
      0: system.membus: Adding snooping requestor system.l2.mem_side_port
      0: system.membus: Received range change from cpu_side_ports system.realview.bootmem.port
      0: system.membus: Adding range [0:0x4000000] for id 1
      0: system.membus: Received range change from cpu_side_ports system.realview.el2_watchdog.pio
      0: system.membus: Adding range [0x2a450000:0x2a460000] for id 7
      0: system.membus: Adding range [0x2a440000:0x2a450000] for id 7
      0: system.iobus: Received range change from cpu_side_ports system.realview.energy_ctrl.pio
      0: system.realview.energy_ctrl: registering range: 0x10000000-0x2c
      0: system.iobus: Adding range [0x10000000:0x1000002c] for id 8
      0: system.Root_Complex.master2: bridge recvRangeChange was called
      0: system.Root_Complex: bridge updateRanges was called
      0: system.membus: Received range change from cpu_side_ports system.Root_Complex.slave
      0: system.switch.master2: bridge recvRangeChange was called
      0: system.switch: bridge updateRanges was called
      0: system.Root_Complex.master1: bridge recvRangeChange was called
      0: system.Root_Complex: bridge updateRanges was called
      0: system.membus: Received range change from cpu_side_ports system.Root_Complex.slave
      0: system.switch.master3: bridge recvRangeChange was called
      0: system.switch: bridge updateRanges was called
      0: system.Root_Complex.master1: bridge recvRangeChange was called
      0: system.Root_Complex: bridge updateRanges was called
      0: system.membus: Received range change from cpu_side_ports system.Root_Complex.slave
      0: system.Root_Complex.master3: bridge recvRangeChange was called
      0: system.Root_Complex: bridge updateRanges was called
      0: system.membus: Received range change from cpu_side_ports system.Root_Complex.slave
      0: system.membus: Received range change from cpu_side_ports system.realview.flash0.port
      0: system.membus: Adding range [0x8000000:0xc000000] for id 5
      0: system.iobus: Received range change from cpu_side_ports system.realview.flash1.port
      0: system.iobus: Adding range [0xc000000:0x10000000] for id 0
      0: system.membus: Received range change from cpu_side_ports system.realview.generic_timer_mem.pio
      0: system.membus: Adding range [0x2a430000:0x2a431000] for id 6
      0: system.membus: Adding range [0x2a800000:0x2a801000] for id 6
      0: system.membus: Adding range [0x2a810000:0x2a811000] for id 6
      0: system.membus: Received range change from cpu_side_ports system.realview.generic_timer_mem.frames0.pio
      0: system.membus: Adding range [0x2a820000:0x2a821000] for id 10
      0: system.membus: Received range change from cpu_side_ports system.realview.generic_timer_mem.frames1.pio
      0: system.membus: Adding range [0x2a830000:0x2a831000] for id 11
      0: system.membus: Received range change from cpu_side_ports system.realview.gic.pio
      0: system.membus: Adding range [0x2c001000:0x2c002000] for id 12
      0: system.membus: Adding range [0x2c002000:0x2c004000] for id 12
      0: system.membus: Received range change from cpu_side_ports system.realview.gicv2m.pio
      0: system.membus: Adding range [0x2c1c0000:0x2c1d0000] for id 14
      0: system.switch.master1: bridge recvRangeChange was called
      0: system.switch: bridge updateRanges was called
      0: system.Root_Complex.master1: bridge recvRangeChange was called
      0: system.Root_Complex: bridge updateRanges was called
      0: system.membus: Received range change from cpu_side_ports system.Root_Complex.slave
      0: system.iobus: Received range change from cpu_side_ports system.realview.kmi0.pio
      0: system.realview.kmi0: registering range: 0x1c060000-0x1000
      0: system.iobus: Adding range [0x1c060000:0x1c061000] for id 3
      0: system.iobus: Received range change from cpu_side_ports system.realview.kmi1.pio
      0: system.realview.kmi1: registering range: 0x1c070000-0x1000
      0: system.iobus: Adding range [0x1c070000:0x1c071000] for id 4
      0: system.membus: Received range change from cpu_side_ports system.realview.non_trusted_sram.port
      0: system.membus: Adding range [0x2e000000:0x2e008000] for id 4
      0: system.iobus: Received range change from cpu_side_ports system.realview.pci_host.pio
      0: system.iobus: Adding range [0x30000000:0x40000000] for id 7
      0: system.iobus: Received range change from cpu_side_ports system.realview.pwr_ctrl.pio
      0: system.realview.pwr_ctrl: registering range: 0x1c100000-0x1000
      0: system.iobus: Adding range [0x1c100000:0x1c101000] for id 9
      0: system.iobus: Received range change from cpu_side_ports system.realview.realview_io.pio
      0: system.realview.realview_io: registering range: 0x1c010000-0xd4
      0: system.iobus: Adding range [0x1c010000:0x1c0100d4] for id 2
      0: system.iobus: Received range change from cpu_side_ports system.realview.rtc.pio
      0: system.realview.rtc: registering range: 0x1c170000-0x1000
      0: system.iobus: Adding range [0x1c170000:0x1c171000] for id 6
      0: system.membus: Received range change from cpu_side_ports system.realview.system_watchdog.pio
      0: system.realview.system_watchdog: registering range: 0x2b060000-0x1000
      0: system.membus: Adding range [0x2b060000:0x2b061000] for id 9
      0: system.membus: Received range change from cpu_side_ports system.realview.trusted_dram.port
      0: system.membus: Adding range [0x6000000:0x8000000] for id 3
      0: system.membus: Received range change from cpu_side_ports system.realview.trusted_sram.port
      0: system.membus: Adding range [0x4000000:0x4040000] for id 2
      0: system.membus: Received range change from cpu_side_ports system.realview.trusted_watchdog.pio
      0: system.realview.trusted_watchdog: registering range: 0x2a490000-0x1000
      0: system.membus: Adding range [0x2a490000:0x2a491000] for id 8
      0: system.iobus: Received range change from cpu_side_ports system.realview.uart0.pio
      0: system.realview.uart0: registering range: 0x1c090000-0x1000
      0: system.iobus: Adding range [0x1c090000:0x1c091000] for id 12
      0: system.iobus: Received range change from cpu_side_ports system.realview.uart1.pio
      0: system.realview.uart1: registering range: 0x1c0a0000-0x1000
      0: system.iobus: Adding range [0x1c0a0000:0x1c0a1000] for id 13
      0: system.iobus: Received range change from cpu_side_ports system.realview.uart2.pio
      0: system.realview.uart2: registering range: 0x1c0b0000-0x1000
      0: system.iobus: Adding range [0x1c0b0000:0x1c0b1000] for id 14
      0: system.iobus: Received range change from cpu_side_ports system.realview.uart3.pio
      0: system.realview.uart3: registering range: 0x1c0c0000-0x1000
      0: system.iobus: Adding range [0x1c0c0000:0x1c0c1000] for id 15
      0: system.membus: Received range change from cpu_side_ports system.realview.vgic.pio
      0: system.membus: Got address ranges from all responders
      0: system.membus: Adding range [0x2c004000:0x2c006000] for id 13
      0: system.membus: Adding range [0x2c006000:0x2c008000] for id 13
      0: system.membus: Aggregating address ranges
      0: system.membus: -- Adding range [0:0x4000000]
      0: system.membus: -- Adding range [0x4000000:0x4040000]
      0: system.membus: -- Adding range [0x6000000:0x8000000]
      0: system.membus: -- Adding range [0x8000000:0xc000000]
      0: system.membus: -- Adding range [0xc000000:0x14000000]
      0: system.membus: -- Adding range [0x17000000:0x20000000]
      0: system.membus: -- Adding range [0x2a430000:0x2a431000]
      0: system.membus: -- Adding range [0x2a440000:0x2a450000]
      0: system.membus: -- Adding range [0x2a450000:0x2a460000]
      0: system.membus: -- Adding range [0x2a490000:0x2a491000]
      0: system.membus: -- Adding range [0x2a800000:0x2a801000]
      0: system.membus: -- Adding range [0x2a810000:0x2a811000]
      0: system.membus: -- Adding range [0x2a820000:0x2a821000]
      0: system.membus: -- Adding range [0x2a830000:0x2a831000]
      0: system.membus: -- Adding range [0x2b060000:0x2b061000]
      0: system.membus: -- Adding range [0x2c001000:0x2c002000]
      0: system.membus: -- Adding range [0x2c002000:0x2c004000]
      0: system.membus: -- Adding range [0x2c004000:0x2c006000]
      0: system.membus: -- Adding range [0x2c006000:0x2c008000]
      0: system.membus: -- Adding range [0x2c1c0000:0x2c1d0000]
      0: system.membus: -- Adding range [0x2e000000:0x2e008000]
      0: system.membus: -- Adding range [0x30000000:0x3fffffff]
      0: system.membus: -- Adding range [0xa0000000:0x120000000]
      0: system.iobus: Received range change from cpu_side_ports system.realview.vio0.pio
      0: system.realview.vio0: registering range: 0x1c130000-0x1000
      0: system.iobus: Adding range [0x1c130000:0x1c131000] for id 10
      0: system.iobus: Received range change from cpu_side_ports system.realview.vio1.pio
      0: system.realview.vio1: registering range: 0x1c140000-0x1000
      0: system.iobus: Adding range [0x1c140000:0x1c141000] for id 11
      0: system.iobus: Received range change from cpu_side_ports system.realview.vram.port
      0: system.iobus: Adding range [0x18000000:0x1a000000] for id 1
      0: system.iobus: Received range change from cpu_side_ports system.realview.watchdog.pio
      0: system.iobus: Got address ranges from all responders
      0: system.realview.watchdog: registering range: 0x1c0f0000-0x1000
      0: system.iobus: Adding range [0x1c0f0000:0x1c0f1000] for id 5
      0: system.iobus: Aggregating address ranges
      0: system.iobus: -- Adding range [0xc000000:0x10000000]
      0: system.iobus: -- Adding range [0x10000000:0x1000002c]
      0: system.iobus: -- Adding range [0x18000000:0x1a000000]
      0: system.iobus: -- Adding range [0x1c010000:0x1c0100d4]
      0: system.iobus: -- Adding range [0x1c060000:0x1c061000]
      0: system.iobus: -- Adding range [0x1c070000:0x1c071000]
      0: system.iobus: -- Adding range [0x1c090000:0x1c091000]
      0: system.iobus: -- Adding range [0x1c0a0000:0x1c0a1000]
      0: system.iobus: -- Adding range [0x1c0b0000:0x1c0b1000]
      0: system.iobus: -- Adding range [0x1c0c0000:0x1c0c1000]
      0: system.iobus: -- Adding range [0x1c0f0000:0x1c0f1000]
      0: system.iobus: -- Adding range [0x1c100000:0x1c101000]
      0: system.iobus: -- Adding range [0x1c130000:0x1c131000]
      0: system.iobus: -- Adding range [0x1c140000:0x1c141000]
      0: system.iobus: -- Adding range [0x1c170000:0x1c171000]
      0: system.iobus: -- Adding range [0x30000000:0x40000000]
      0: system.Root_Complex.master1: bridge recvRangeChange was called
      0: system.Root_Complex: bridge updateRanges was called
      0: system.membus: Received range change from cpu_side_ports system.Root_Complex.slave
      0: system.membus: Aggregating address ranges
      0: system.membus: -- Adding range [0:0x4000000]
      0: system.membus: -- Adding range [0x4000000:0x4040000]
      0: system.membus: -- Adding range [0x6000000:0x8000000]
      0: system.membus: -- Adding range [0x8000000:0xc000000]
      0: system.membus: -- Adding range [0xc000000:0x14000000]
      0: system.membus: -- Adding range [0x17000000:0x20000000]
      0: system.membus: -- Adding range [0x2a430000:0x2a431000]
      0: system.membus: -- Adding range [0x2a440000:0x2a450000]
      0: system.membus: -- Adding range [0x2a450000:0x2a460000]
      0: system.membus: -- Adding range [0x2a490000:0x2a491000]
      0: system.membus: -- Adding range [0x2a800000:0x2a801000]
      0: system.membus: -- Adding range [0x2a810000:0x2a811000]
      0: system.membus: -- Adding range [0x2a820000:0x2a821000]
      0: system.membus: -- Adding range [0x2a830000:0x2a831000]
      0: system.membus: -- Adding range [0x2b060000:0x2b061000]
      0: system.membus: -- Adding range [0x2c001000:0x2c002000]
      0: system.membus: -- Adding range [0x2c002000:0x2c004000]
      0: system.membus: -- Adding range [0x2c004000:0x2c006000]
      0: system.membus: -- Adding range [0x2c006000:0x2c008000]
      0: system.membus: -- Adding range [0x2c1c0000:0x2c1d0000]
      0: system.membus: -- Adding range [0x2e000000:0x2e008000]
      0: system.membus: -- Adding range [0x30000000:0x3fffffff]
      0: system.membus: -- Adding range [0xa0000000:0x120000000]
      0: system.tol2bus: Adding snooping requestor system.cpu.icache.mem_side_port
      0: system.tol2bus: Adding snooping requestor system.cpu.dcache.mem_side_port
**** REAL SIMULATION ****
      0: system.cpu.icache: (CXL_Debug) Cache::handleAtomicReqMiss (2) pkt=ReadReq [12000:12003] (s) IF UC
      0: system.l2: (CXL_Debug) Cache::handleAtomicReqMiss (2) pkt=ReadReq [12000:12003] (s) IF UC
      0: system.cpu.dcache: (CXL_Debug) Cache::handleAtomicReqMiss (2) pkt=ReadReq [12130:12133] (s) UC
      0: system.l2: (CXL_Debug) Cache::handleAtomicReqMiss (2) pkt=ReadReq [12130:12133] (s) UC
    500: system.cpu.icache: (CXL_Debug) Cache::handleAtomicReqMiss (2) pkt=ReadReq [12004:12007] (s) IF UC
    500: system.l2: (CXL_Debug) Cache::handleAtomicReqMiss (2) pkt=ReadReq [12004:12007] (s) IF UC
   1000: system.cpu.icache: (CXL_Debug) Cache::handleAtomicReqMiss (2) pkt=ReadReq [12008:1200b] (s) IF UC
   1000: system.l2: (CXL_Debug) Cache::handleAtomicReqMiss (2) pkt=ReadReq [12008:1200b] (s) IF UC
   1500: system.cpu.icache: (CXL_Debug) Cache::handleAtomicReqMiss (2) pkt=ReadReq [1200c:1200f] (s) IF UC
   1500: system.l2: (CXL_Debug) Cache::handleAtomicReqMiss (2) pkt=ReadReq [1200c:1200f] (s) IF UC
   2000: system.cpu.icache: (CXL_Debug) Cache::handleAtomicReqMiss (2) pkt=ReadReq [12010:12013] (s) IF UC
   2000: system.l2: (CXL_Debug) Cache::handleAtomicReqMiss (2) pkt=ReadReq [12010:12013] (s) IF UC
   2500: system.cpu.icache: (CXL_Debug) Cache::handleAtomicReqMiss (2) pkt=ReadReq [12014:12017] (s) IF UC
   2500: system.l2: (CXL_Debug) Cache::handleAtomicReqMiss (2) pkt=ReadReq [12014:12017] (s) IF UC
   3000: system.cpu.icache: (CXL_Debug) Cache::handleAtomicReqMiss (2) pkt=ReadReq [12018:1201b] (s) IF UC
   3000: system.l2: (CXL_Debug) Cache::handleAtomicReqMiss (2) pkt=ReadReq [12018:1201b] (s) IF UC
   3500: system.cpu.icache: (CXL_Debug) Cache::handleAtomicReqMiss (2) pkt=ReadReq [1201c:1201f] (s) IF UC
   3500: system.l2: (CXL_Debug) Cache::handleAtomicReqMiss (2) pkt=ReadReq [1201c:1201f] (s) IF UC
   4000: system.cpu.icache: (CXL_Debug) Cache::handleAtomicReqMiss (2) pkt=ReadReq [12020:12023] (s) IF UC
   4000: system.l2: (CXL_Debug) Cache::handleAtomicReqMiss (2) pkt=ReadReq [12020:12023] (s) IF UC
   4500: system.cpu.icache: (CXL_Debug) Cache::handleAtomicReqMiss (2) pkt=ReadReq [12024:12027] (s) IF UC
   4500: system.l2: (CXL_Debug) Cache::handleAtomicReqMiss (2) pkt=ReadReq [12024:12027] (s) IF UC
   5000: system.cpu.icache: (CXL_Debug) Cache::handleAtomicReqMiss (2) pkt=ReadReq [12028:1202b] (s) IF UC
   5000: system.l2: (CXL_Debug) Cache::handleAtomicReqMiss (2) pkt=ReadReq [12028:1202b] (s) IF UC
   5500: system.cpu.icache: (CXL_Debug) Cache::handleAtomicReqMiss (2) pkt=ReadReq [1202c:1202f] (s) IF UC
   5500: system.l2: (CXL_Debug) Cache::handleAtomicReqMiss (2) pkt=ReadReq [1202c:1202f] (s) IF UC
   6000: system.cpu.icache: (CXL_Debug) Cache::handleAtomicReqMiss (2) pkt=ReadReq [12030:12033] (s) IF UC
   6000: system.l2: (CXL_Debug) Cache::handleAtomicReqMiss (2) pkt=ReadReq [12030:12033] (s) IF UC
   6500: system.cpu.icache: (CXL_Debug) Cache::handleAtomicReqMiss (2) pkt=ReadReq [12034:12037] (s) IF UC
   6500: system.l2: (CXL_Debug) Cache::handleAtomicReqMiss (2) pkt=ReadReq [12034:12037] (s) IF UC
   7000: system.cpu.icache: (CXL_Debug) Cache::handleAtomicReqMiss (2) pkt=ReadReq [12038:1203b] (s) IF UC
   7000: system.l2: (CXL_Debug) Cache::handleAtomicReqMiss (2) pkt=ReadReq [12038:1203b] (s) IF UC
   7500: system.cpu.icache: (CXL_Debug) Cache::handleAtomicReqMiss (2) pkt=ReadReq [1203c:1203f] (s) IF UC
   7500: system.l2: (CXL_Debug) Cache::handleAtomicReqMiss (2) pkt=ReadReq [1203c:1203f] (s) IF UC
   8000: system.cpu.icache: (CXL_Debug) Cache::handleAtomicReqMiss (2) pkt=ReadReq [12040:12043] (s) IF UC
   8000: system.l2: (CXL_Debug) Cache::handleAtomicReqMiss (2) pkt=ReadReq [12040:12043] (s) IF UC
   8500: system.cpu.icache: (CXL_Debug) Cache::handleAtomicReqMiss (2) pkt=ReadReq [12044:12047] (s) IF UC
   8500: system.l2: (CXL_Debug) Cache::handleAtomicReqMiss (2) pkt=ReadReq [12044:12047] (s) IF UC
   9000: system.cpu.icache: (CXL_Debug) Cache::handleAtomicReqMiss (2) pkt=ReadReq [12048:1204b] (s) IF UC
   9000: system.l2: (CXL_Debug) Cache::handleAtomicReqMiss (2) pkt=ReadReq [12048:1204b] (s) IF UC
   9000: system.cpu.dcache: (CXL_Debug) Cache::handleAtomicReqMiss (2) pkt=ReadReq [12134:12137] (s) UC
   9000: system.l2: (CXL_Debug) Cache::handleAtomicReqMiss (2) pkt=ReadReq [12134:12137] (s) UC
   9500: system.cpu.icache: (CXL_Debug) Cache::handleAtomicReqMiss (2) pkt=ReadReq [1204c:1204f] (s) IF UC
   9500: system.l2: (CXL_Debug) Cache::handleAtomicReqMiss (2) pkt=ReadReq [1204c:1204f] (s) IF UC
  10000: system.cpu.icache: (CXL_Debug) Cache::handleAtomicReqMiss (2) pkt=ReadReq [12050:12053] (s) IF UC
  10000: system.l2: (CXL_Debug) Cache::handleAtomicReqMiss (2) pkt=ReadReq [12050:12053] (s) IF UC
  10000: system.cpu.dcache: (CXL_Debug) Cache::handleAtomicReqMiss (2) pkt=ReadReq [12138:1213b] (s) UC
  10000: system.l2: (CXL_Debug) Cache::handleAtomicReqMiss (2) pkt=ReadReq [12138:1213b] (s) UC
  10500: system.cpu.icache: (CXL_Debug) Cache::handleAtomicReqMiss (2) pkt=ReadReq [12054:12057] (s) IF UC
  10500: system.l2: (CXL_Debug) Cache::handleAtomicReqMiss (2) pkt=ReadReq [12054:12057] (s) IF UC
  11000: system.cpu.icache: (CXL_Debug) Cache::handleAtomicReqMiss (2) pkt=ReadReq [12058:1205b] (s) IF UC
  11000: system.l2: (CXL_Debug) Cache::handleAtomicReqMiss (2) pkt=ReadReq [12058:1205b] (s) IF UC
  11500: system.cpu.icache: (CXL_Debug) Cache::handleAtomicReqMiss (2) pkt=ReadReq [1205c:1205f] (s) IF UC
  11500: system.l2: (CXL_Debug) Cache::handleAtomicReqMiss (2) pkt=ReadReq [1205c:1205f] (s) IF UC
  12000: system.cpu.icache: (CXL_Debug) Cache::handleAtomicReqMiss (2) pkt=ReadReq [12060:12063] (s) IF UC
  12000: system.l2: (CXL_Debug) Cache::handleAtomicReqMiss (2) pkt=ReadReq [12060:12063] (s) IF UC
  12500: system.cpu.icache: (CXL_Debug) Cache::handleAtomicReqMiss (2) pkt=ReadReq [12064:12067] (s) IF UC
  12500: system.l2: (CXL_Debug) Cache::handleAtomicReqMiss (2) pkt=ReadReq [12064:12067] (s) IF UC
  13000: system.cpu.icache: (CXL_Debug) Cache::handleAtomicReqMiss (2) pkt=ReadReq [12068:1206b] (s) IF UC
  13000: system.l2: (CXL_Debug) Cache::handleAtomicReqMiss (2) pkt=ReadReq [12068:1206b] (s) IF UC
  13500: system.cpu.icache: (CXL_Debug) Cache::handleAtomicReqMiss (2) pkt=ReadReq [1206c:1206f] (s) IF UC
  13500: system.l2: (CXL_Debug) Cache::handleAtomicReqMiss (2) pkt=ReadReq [1206c:1206f] (s) IF UC
  14000: system.cpu.icache: (CXL_Debug) Cache::handleAtomicReqMiss (2) pkt=ReadReq [12070:12073] (s) IF UC
  14000: system.l2: (CXL_Debug) Cache::handleAtomicReqMiss (2) pkt=ReadReq [12070:12073] (s) IF UC
  14500: system.cpu.icache: (CXL_Debug) Cache::handleAtomicReqMiss (2) pkt=ReadReq [12074:12077] (s) IF UC
  14500: system.l2: (CXL_Debug) Cache::handleAtomicReqMiss (2) pkt=ReadReq [12074:12077] (s) IF UC
  15000: system.cpu.icache: (CXL_Debug) Cache::handleAtomicReqMiss (2) pkt=ReadReq [12078:1207b] (s) IF UC
  15000: system.l2: (CXL_Debug) Cache::handleAtomicReqMiss (2) pkt=ReadReq [12078:1207b] (s) IF UC
  15500: system.cpu.icache: (CXL_Debug) Cache::handleAtomicReqMiss (2) pkt=ReadReq [1207c:1207f] (s) IF UC
  15500: system.l2: (CXL_Debug) Cache::handleAtomicReqMiss (2) pkt=ReadReq [1207c:1207f] (s) IF UC
  16000: system.cpu.icache: (CXL_Debug) Cache::handleAtomicReqMiss (2) pkt=ReadReq [12080:12083] (s) IF UC
  16000: system.l2: (CXL_Debug) Cache::handleAtomicReqMiss (2) pkt=ReadReq [12080:12083] (s) IF UC
  16500: system.cpu.icache: (CXL_Debug) Cache::handleAtomicReqMiss (2) pkt=ReadReq [12084:12087] (s) IF UC
  16500: system.l2: (CXL_Debug) Cache::handleAtomicReqMiss (2) pkt=ReadReq [12084:12087] (s) IF UC
  17000: system.cpu.icache: (CXL_Debug) Cache::handleAtomicReqMiss (2) pkt=ReadReq [12088:1208b] (s) IF UC
  17000: system.l2: (CXL_Debug) Cache::handleAtomicReqMiss (2) pkt=ReadReq [12088:1208b] (s) IF UC
  17500: system.cpu.icache: (CXL_Debug) Cache::handleAtomicReqMiss (2) pkt=ReadReq [1208c:1208f] (s) IF UC
  17500: system.l2: (CXL_Debug) Cache::handleAtomicReqMiss (2) pkt=ReadReq [1208c:1208f] (s) IF UC
  18000: system.cpu.icache: (CXL_Debug) Cache::handleAtomicReqMiss (2) pkt=ReadReq [12090:12093] (s) IF UC
  18000: system.l2: (CXL_Debug) Cache::handleAtomicReqMiss (2) pkt=ReadReq [12090:12093] (s) IF UC
  18000: system.cpu.dcache: (CXL_Debug) Cache::handleAtomicReqMiss (2) pkt=ReadReq [1213c:1213f] (s) UC
  18000: system.l2: (CXL_Debug) Cache::handleAtomicReqMiss (2) pkt=ReadReq [1213c:1213f] (s) UC
  18500: system.cpu.icache: (CXL_Debug) Cache::handleAtomicReqMiss (2) pkt=ReadReq [12094:12097] (s) IF UC
  18500: system.l2: (CXL_Debug) Cache::handleAtomicReqMiss (2) pkt=ReadReq [12094:12097] (s) IF UC
  19000: system.cpu.icache: (CXL_Debug) Cache::handleAtomicReqMiss (2) pkt=ReadReq [12098:1209b] (s) IF UC
  19000: system.l2: (CXL_Debug) Cache::handleAtomicReqMiss (2) pkt=ReadReq [12098:1209b] (s) IF UC
  19500: system.cpu.icache: (CXL_Debug) Cache::handleAtomicReqMiss (2) pkt=ReadReq [1209c:1209f] (s) IF UC
  19500: system.l2: (CXL_Debug) Cache::handleAtomicReqMiss (2) pkt=ReadReq [1209c:1209f] (s) IF UC
  20000: system.cpu.icache: (CXL_Debug) Cache::handleAtomicReqMiss (2) pkt=ReadReq [120a0:120a3] (s) IF UC
  20000: system.l2: (CXL_Debug) Cache::handleAtomicReqMiss (2) pkt=ReadReq [120a0:120a3] (s) IF UC
  20500: system.cpu.icache: (CXL_Debug) Cache::handleAtomicReqMiss (2) pkt=ReadReq [120a4:120a7] (s) IF UC
  20500: system.l2: (CXL_Debug) Cache::handleAtomicReqMiss (2) pkt=ReadReq [120a4:120a7] (s) IF UC
  20500: system.cpu.dcache: (CXL_Debug) Cache::handleAtomicReqMiss (2) pkt=ReadReq [12140:12143] (s) UC
  20500: system.l2: (CXL_Debug) Cache::handleAtomicReqMiss (2) pkt=ReadReq [12140:12143] (s) UC
  21000: system.cpu.icache: (CXL_Debug) Cache::handleAtomicReqMiss (2) pkt=ReadReq [120a8:120ab] (s) IF UC
  21000: system.l2: (CXL_Debug) Cache::handleAtomicReqMiss (2) pkt=ReadReq [120a8:120ab] (s) IF UC
  21500: system.cpu.icache: (CXL_Debug) Cache::handleAtomicReqMiss (2) pkt=ReadReq [120ac:120af] (s) IF UC
  21500: system.l2: (CXL_Debug) Cache::handleAtomicReqMiss (2) pkt=ReadReq [120ac:120af] (s) IF UC
  22000: system.cpu.icache: (CXL_Debug) Cache::handleAtomicReqMiss (2) pkt=ReadReq [120b0:120b3] (s) IF UC
  22000: system.l2: (CXL_Debug) Cache::handleAtomicReqMiss (2) pkt=ReadReq [120b0:120b3] (s) IF UC
  22500: system.cpu.icache: (CXL_Debug) Cache::handleAtomicReqMiss (2) pkt=ReadReq [120b4:120b7] (s) IF UC
  22500: system.l2: (CXL_Debug) Cache::handleAtomicReqMiss (2) pkt=ReadReq [120b4:120b7] (s) IF UC
  23000: system.cpu.icache: (CXL_Debug) Cache::handleAtomicReqMiss (2) pkt=ReadReq [120b8:120bb] (s) IF UC
  23000: system.l2: (CXL_Debug) Cache::handleAtomicReqMiss (2) pkt=ReadReq [120b8:120bb] (s) IF UC
  23000: system.cpu.dcache: (CXL_Debug) Cache::handleAtomicReqMiss (2) pkt=ReadReq [12144:12147] (s) UC
  23000: system.l2: (CXL_Debug) Cache::handleAtomicReqMiss (2) pkt=ReadReq [12144:12147] (s) UC
  23500: system.cpu.icache: (CXL_Debug) Cache::handleAtomicReqMiss (2) pkt=ReadReq [120bc:120bf] (s) IF UC
  23500: system.l2: (CXL_Debug) Cache::handleAtomicReqMiss (2) pkt=ReadReq [120bc:120bf] (s) IF UC
  24000: system.cpu.icache: (CXL_Debug) Cache::handleAtomicReqMiss (2) pkt=ReadReq [120c0:120c3] (s) IF UC
  24000: system.l2: (CXL_Debug) Cache::handleAtomicReqMiss (2) pkt=ReadReq [120c0:120c3] (s) IF UC
  24000: system.cpu.dcache: (CXL_Debug) Cache::handleAtomicReqMiss pkt=WriteReq [0:3] (s) UC
  24000: system.l2: (CXL_Debug) Cache::handleAtomicReqMiss pkt=WriteReq [0:3] (s) UC
  25000: system.cpu.icache: (CXL_Debug) Cache::handleAtomicReqMiss (2) pkt=ReadReq [120c4:120c7] (s) IF UC
  25000: system.l2: (CXL_Debug) Cache::handleAtomicReqMiss (2) pkt=ReadReq [120c4:120c7] (s) IF UC
  25500: system.cpu.icache: (CXL_Debug) Cache::handleAtomicReqMiss (2) pkt=ReadReq [120c8:120cb] (s) IF UC
  25500: system.l2: (CXL_Debug) Cache::handleAtomicReqMiss (2) pkt=ReadReq [120c8:120cb] (s) IF UC
  26000: system.cpu.icache: (CXL_Debug) Cache::handleAtomicReqMiss (2) pkt=ReadReq [120cc:120cf] (s) IF UC
  26000: system.l2: (CXL_Debug) Cache::handleAtomicReqMiss (2) pkt=ReadReq [120cc:120cf] (s) IF UC
  26500: system.cpu.icache: (CXL_Debug) Cache::handleAtomicReqMiss (2) pkt=ReadReq [120c0:120c3] (s) IF UC
  26500: system.l2: (CXL_Debug) Cache::handleAtomicReqMiss (2) pkt=ReadReq [120c0:120c3] (s) IF UC
  26500: system.cpu.dcache: (CXL_Debug) Cache::handleAtomicReqMiss pkt=WriteReq [4:7] (s) UC
  26500: system.l2: (CXL_Debug) Cache::handleAtomicReqMiss pkt=WriteReq [4:7] (s) UC
  27500: system.cpu.icache: (CXL_Debug) Cache::handleAtomicReqMiss (2) pkt=ReadReq [120c4:120c7] (s) IF UC
  27500: system.l2: (CXL_Debug) Cache::handleAtomicReqMiss (2) pkt=ReadReq [120c4:120c7] (s) IF UC
  28000: system.cpu.icache: (CXL_Debug) Cache::handleAtomicReqMiss (2) pkt=ReadReq [120c8:120cb] (s) IF UC
  28000: system.l2: (CXL_Debug) Cache::handleAtomicReqMiss (2) pkt=ReadReq [120c8:120cb] (s) IF UC
  28500: system.cpu.icache: (CXL_Debug) Cache::handleAtomicReqMiss (2) pkt=ReadReq [120cc:120cf] (s) IF UC
  28500: system.l2: (CXL_Debug) Cache::handleAtomicReqMiss (2) pkt=ReadReq [120cc:120cf] (s) IF UC
  29000: system.cpu.icache: (CXL_Debug) Cache::handleAtomicReqMiss (2) pkt=ReadReq [120c0:120c3] (s) IF UC
  29000: system.l2: (CXL_Debug) Cache::handleAtomicReqMiss (2) pkt=ReadReq [120c0:120c3] (s) IF UC
  29000: system.cpu.dcache: (CXL_Debug) Cache::handleAtomicReqMiss pkt=WriteReq [8:b] (s) UC
  29000: system.l2: (CXL_Debug) Cache::handleAtomicReqMiss pkt=WriteReq [8:b] (s) UC
  30000: system.cpu.icache: (CXL_Debug) Cache::handleAtomicReqMiss (2) pkt=ReadReq [120c4:120c7] (s) IF UC
  30000: system.l2: (CXL_Debug) Cache::handleAtomicReqMiss (2) pkt=ReadReq [120c4:120c7] (s) IF UC
  30500: system.cpu.icache: (CXL_Debug) Cache::handleAtomicReqMiss (2) pkt=ReadReq [120c8:120cb] (s) IF UC
  30500: system.l2: (CXL_Debug) Cache::handleAtomicReqMiss (2) pkt=ReadReq [120c8:120cb] (s) IF UC
  31000: system.cpu.icache: (CXL_Debug) Cache::handleAtomicReqMiss (2) pkt=ReadReq [120cc:120cf] (s) IF UC
  31000: system.l2: (CXL_Debug) Cache::handleAtomicReqMiss (2) pkt=ReadReq [120cc:120cf] (s) IF UC
  31500: system.cpu.icache: (CXL_Debug) Cache::handleAtomicReqMiss (2) pkt=ReadReq [120c0:120c3] (s) IF UC
  31500: system.l2: (CXL_Debug) Cache::handleAtomicReqMiss (2) pkt=ReadReq [120c0:120c3] (s) IF UC
  31500: system.cpu.dcache: (CXL_Debug) Cache::handleAtomicReqMiss pkt=WriteReq [c:f] (s) UC
  31500: system.l2: (CXL_Debug) Cache::handleAtomicReqMiss pkt=WriteReq [c:f] (s) UC
  32500: system.cpu.icache: (CXL_Debug) Cache::handleAtomicReqMiss (2) pkt=ReadReq [120c4:120c7] (s) IF UC
  32500: system.l2: (CXL_Debug) Cache::handleAtomicReqMiss (2) pkt=ReadReq [120c4:120c7] (s) IF UC
  33000: system.cpu.icache: (CXL_Debug) Cache::handleAtomicReqMiss (2) pkt=ReadReq [120c8:120cb] (s) IF UC
  33000: system.l2: (CXL_Debug) Cache::handleAtomicReqMiss (2) pkt=ReadReq [120c8:120cb] (s) IF UC
  33500: system.cpu.icache: (CXL_Debug) Cache::handleAtomicReqMiss (2) pkt=ReadReq [120cc:120cf] (s) IF UC
  33500: system.l2: (CXL_Debug) Cache::handleAtomicReqMiss (2) pkt=ReadReq [120cc:120cf] (s) IF UC
  34000: system.cpu.icache: (CXL_Debug) Cache::handleAtomicReqMiss (2) pkt=ReadReq [120c0:120c3] (s) IF UC
  34000: system.l2: (CXL_Debug) Cache::handleAtomicReqMiss (2) pkt=ReadReq [120c0:120c3] (s) IF UC
  34000: system.cpu.dcache: (CXL_Debug) Cache::handleAtomicReqMiss pkt=WriteReq [10:13] (s) UC
  34000: system.l2: (CXL_Debug) Cache::handleAtomicReqMiss pkt=WriteReq [10:13] (s) UC
  35000: system.cpu.icache: (CXL_Debug) Cache::handleAtomicReqMiss (2) pkt=ReadReq [120c4:120c7] (s) IF UC
  35000: system.l2: (CXL_Debug) Cache::handleAtomicReqMiss (2) pkt=ReadReq [120c4:120c7] (s) IF UC
  35500: system.cpu.icache: (CXL_Debug) Cache::handleAtomicReqMiss (2) pkt=ReadReq [120c8:120cb] (s) IF UC
  35500: system.l2: (CXL_Debug) Cache::handleAtomicReqMiss (2) pkt=ReadReq [120c8:120cb] (s) IF UC
  36000: system.cpu.icache: (CXL_Debug) Cache::handleAtomicReqMiss (2) pkt=ReadReq [120cc:120cf] (s) IF UC
  36000: system.l2: (CXL_Debug) Cache::handleAtomicReqMiss (2) pkt=ReadReq [120cc:120cf] (s) IF UC
  36500: system.cpu.icache: (CXL_Debug) Cache::handleAtomicReqMiss (2) pkt=ReadReq [120c0:120c3] (s) IF UC
  36500: system.l2: (CXL_Debug) Cache::handleAtomicReqMiss (2) pkt=ReadReq [120c0:120c3] (s) IF UC
  36500: system.cpu.dcache: (CXL_Debug) Cache::handleAtomicReqMiss pkt=WriteReq [14:17] (s) UC
  36500: system.l2: (CXL_Debug) Cache::handleAtomicReqMiss pkt=WriteReq [14:17] (s) UC
  37500: system.cpu.icache: (CXL_Debug) Cache::handleAtomicReqMiss (2) pkt=ReadReq [120c4:120c7] (s) IF UC
  37500: system.l2: (CXL_Debug) Cache::handleAtomicReqMiss (2) pkt=ReadReq [120c4:120c7] (s) IF UC
  38000: system.cpu.icache: (CXL_Debug) Cache::handleAtomicReqMiss (2) pkt=ReadReq [120c8:120cb] (s) IF UC
  38000: system.l2: (CXL_Debug) Cache::handleAtomicReqMiss (2) pkt=ReadReq [120c8:120cb] (s) IF UC
  38500: system.cpu.icache: (CXL_Debug) Cache::handleAtomicReqMiss (2) pkt=ReadReq [120cc:120cf] (s) IF UC
  38500: system.l2: (CXL_Debug) Cache::handleAtomicReqMiss (2) pkt=ReadReq [120cc:120cf] (s) IF UC
  39000: system.cpu.icache: (CXL_Debug) Cache::handleAtomicReqMiss (2) pkt=ReadReq [120c0:120c3] (s) IF UC
  39000: system.l2: (CXL_Debug) Cache::handleAtomicReqMiss (2) pkt=ReadReq [120c0:120c3] (s) IF UC
  39000: system.cpu.dcache: (CXL_Debug) Cache::handleAtomicReqMiss pkt=WriteReq [18:1b] (s) UC
  39000: system.l2: (CXL_Debug) Cache::handleAtomicReqMiss pkt=WriteReq [18:1b] (s) UC
  40000: system.cpu.icache: (CXL_Debug) Cache::handleAtomicReqMiss (2) pkt=ReadReq [120c4:120c7] (s) IF UC
  40000: system.l2: (CXL_Debug) Cache::handleAtomicReqMiss (2) pkt=ReadReq [120c4:120c7] (s) IF UC
  40500: system.cpu.icache: (CXL_Debug) Cache::handleAtomicReqMiss (2) pkt=ReadReq [120c8:120cb] (s) IF UC
  40500: system.l2: (CXL_Debug) Cache::handleAtomicReqMiss (2) pkt=ReadReq [120c8:120cb] (s) IF UC
  41000: system.cpu.icache: (CXL_Debug) Cache::handleAtomicReqMiss (2) pkt=ReadReq [120cc:120cf] (s) IF UC
  41000: system.l2: (CXL_Debug) Cache::handleAtomicReqMiss (2) pkt=ReadReq [120cc:120cf] (s) IF UC
  41500: system.cpu.icache: (CXL_Debug) Cache::handleAtomicReqMiss (2) pkt=ReadReq [120c0:120c3] (s) IF UC
  41500: system.l2: (CXL_Debug) Cache::handleAtomicReqMiss (2) pkt=ReadReq [120c0:120c3] (s) IF UC
  41500: system.cpu.dcache: (CXL_Debug) Cache::handleAtomicReqMiss pkt=WriteReq [1c:1f] (s) UC
  41500: system.l2: (CXL_Debug) Cache::handleAtomicReqMiss pkt=WriteReq [1c:1f] (s) UC
  42500: system.cpu.icache: (CXL_Debug) Cache::handleAtomicReqMiss (2) pkt=ReadReq [120c4:120c7] (s) IF UC
  42500: system.l2: (CXL_Debug) Cache::handleAtomicReqMiss (2) pkt=ReadReq [120c4:120c7] (s) IF UC
  43000: system.cpu.icache: (CXL_Debug) Cache::handleAtomicReqMiss (2) pkt=ReadReq [120c8:120cb] (s) IF UC
  43000: system.l2: (CXL_Debug) Cache::handleAtomicReqMiss (2) pkt=ReadReq [120c8:120cb] (s) IF UC
  43500: system.cpu.icache: (CXL_Debug) Cache::handleAtomicReqMiss (2) pkt=ReadReq [120cc:120cf] (s) IF UC
  43500: system.l2: (CXL_Debug) Cache::handleAtomicReqMiss (2) pkt=ReadReq [120cc:120cf] (s) IF UC
  44000: system.cpu.icache: (CXL_Debug) Cache::handleAtomicReqMiss (2) pkt=ReadReq [120c0:120c3] (s) IF UC
  44000: system.l2: (CXL_Debug) Cache::handleAtomicReqMiss (2) pkt=ReadReq [120c0:120c3] (s) IF UC
  44000: system.cpu.dcache: (CXL_Debug) Cache::handleAtomicReqMiss pkt=WriteReq [20:23] (s) UC
  44000: system.l2: (CXL_Debug) Cache::handleAtomicReqMiss pkt=WriteReq [20:23] (s) UC
  45000: system.cpu.icache: (CXL_Debug) Cache::handleAtomicReqMiss (2) pkt=ReadReq [120c4:120c7] (s) IF UC
  45000: system.l2: (CXL_Debug) Cache::handleAtomicReqMiss (2) pkt=ReadReq [120c4:120c7] (s) IF UC
  45500: system.cpu.icache: (CXL_Debug) Cache::handleAtomicReqMiss (2) pkt=ReadReq [120c8:120cb] (s) IF UC
  45500: system.l2: (CXL_Debug) Cache::handleAtomicReqMiss (2) pkt=ReadReq [120c8:120cb] (s) IF UC
  46000: system.cpu.icache: (CXL_Debug) Cache::handleAtomicReqMiss (2) pkt=ReadReq [120cc:120cf] (s) IF UC
  46000: system.l2: (CXL_Debug) Cache::handleAtomicReqMiss (2) pkt=ReadReq [120cc:120cf] (s) IF UC
  46500: system.cpu.icache: (CXL_Debug) Cache::handleAtomicReqMiss (2) pkt=ReadReq [120c0:120c3] (s) IF UC
  46500: system.l2: (CXL_Debug) Cache::handleAtomicReqMiss (2) pkt=ReadReq [120c0:120c3] (s) IF UC
  46500: system.cpu.dcache: (CXL_Debug) Cache::handleAtomicReqMiss pkt=WriteReq [24:27] (s) UC
  46500: system.l2: (CXL_Debug) Cache::handleAtomicReqMiss pkt=WriteReq [24:27] (s) UC
  47500: system.cpu.icache: (CXL_Debug) Cache::handleAtomicReqMiss (2) pkt=ReadReq [120c4:120c7] (s) IF UC
  47500: system.l2: (CXL_Debug) Cache::handleAtomicReqMiss (2) pkt=ReadReq [120c4:120c7] (s) IF UC
  48000: system.cpu.icache: (CXL_Debug) Cache::handleAtomicReqMiss (2) pkt=ReadReq [120c8:120cb] (s) IF UC
  48000: system.l2: (CXL_Debug) Cache::handleAtomicReqMiss (2) pkt=ReadReq [120c8:120cb] (s) IF UC
  48500: system.cpu.icache: (CXL_Debug) Cache::handleAtomicReqMiss (2) pkt=ReadReq [120cc:120cf] (s) IF UC
  48500: system.l2: (CXL_Debug) Cache::handleAtomicReqMiss (2) pkt=ReadReq [120cc:120cf] (s) IF UC
  49000: system.cpu.icache: (CXL_Debug) Cache::handleAtomicReqMiss (2) pkt=ReadReq [120c0:120c3] (s) IF UC
  49000: system.l2: (CXL_Debug) Cache::handleAtomicReqMiss (2) pkt=ReadReq [120c0:120c3] (s) IF UC
  49000: system.cpu.dcache: (CXL_Debug) Cache::handleAtomicReqMiss pkt=WriteReq [28:2b] (s) UC
  49000: system.l2: (CXL_Debug) Cache::handleAtomicReqMiss pkt=WriteReq [28:2b] (s) UC
  50000: system.cpu.icache: (CXL_Debug) Cache::handleAtomicReqMiss (2) pkt=ReadReq [120c4:120c7] (s) IF UC
  50000: system.l2: (CXL_Debug) Cache::handleAtomicReqMiss (2) pkt=ReadReq [120c4:120c7] (s) IF UC
  50500: system.cpu.icache: (CXL_Debug) Cache::handleAtomicReqMiss (2) pkt=ReadReq [120c8:120cb] (s) IF UC
  50500: system.l2: (CXL_Debug) Cache::handleAtomicReqMiss (2) pkt=ReadReq [120c8:120cb] (s) IF UC
  51000: system.cpu.icache: (CXL_Debug) Cache::handleAtomicReqMiss (2) pkt=ReadReq [120cc:120cf] (s) IF UC
  51000: system.l2: (CXL_Debug) Cache::handleAtomicReqMiss (2) pkt=ReadReq [120cc:120cf] (s) IF UC
  51500: system.cpu.icache: (CXL_Debug) Cache::handleAtomicReqMiss (2) pkt=ReadReq [120c0:120c3] (s) IF UC
  51500: system.l2: (CXL_Debug) Cache::handleAtomicReqMiss (2) pkt=ReadReq [120c0:120c3] (s) IF UC
  51500: system.cpu.dcache: (CXL_Debug) Cache::handleAtomicReqMiss pkt=WriteReq [2c:2f] (s) UC
  51500: system.l2: (CXL_Debug) Cache::handleAtomicReqMiss pkt=WriteReq [2c:2f] (s) UC
  52500: system.cpu.icache: (CXL_Debug) Cache::handleAtomicReqMiss (2) pkt=ReadReq [120c4:120c7] (s) IF UC
  52500: system.l2: (CXL_Debug) Cache::handleAtomicReqMiss (2) pkt=ReadReq [120c4:120c7] (s) IF UC
  53000: system.cpu.icache: (CXL_Debug) Cache::handleAtomicReqMiss (2) pkt=ReadReq [120c8:120cb] (s) IF UC
  53000: system.l2: (CXL_Debug) Cache::handleAtomicReqMiss (2) pkt=ReadReq [120c8:120cb] (s) IF UC
  53500: system.cpu.icache: (CXL_Debug) Cache::handleAtomicReqMiss (2) pkt=ReadReq [120cc:120cf] (s) IF UC
  53500: system.l2: (CXL_Debug) Cache::handleAtomicReqMiss (2) pkt=ReadReq [120cc:120cf] (s) IF UC
  54000: system.cpu.icache: (CXL_Debug) Cache::handleAtomicReqMiss (2) pkt=ReadReq [120c0:120c3] (s) IF UC
  54000: system.l2: (CXL_Debug) Cache::handleAtomicReqMiss (2) pkt=ReadReq [120c0:120c3] (s) IF UC
  54000: system.cpu.dcache: (CXL_Debug) Cache::handleAtomicReqMiss pkt=WriteReq [30:33] (s) UC
  54000: system.l2: (CXL_Debug) Cache::handleAtomicReqMiss pkt=WriteReq [30:33] (s) UC
  55000: system.cpu.icache: (CXL_Debug) Cache::handleAtomicReqMiss (2) pkt=ReadReq [120c4:120c7] (s) IF UC
  55000: system.l2: (CXL_Debug) Cache::handleAtomicReqMiss (2) pkt=ReadReq [120c4:120c7] (s) IF UC
  55500: system.cpu.icache: (CXL_Debug) Cache::handleAtomicReqMiss (2) pkt=ReadReq [120c8:120cb] (s) IF UC
  55500: system.l2: (CXL_Debug) Cache::handleAtomicReqMiss (2) pkt=ReadReq [120c8:120cb] (s) IF UC
  56000: system.cpu.icache: (CXL_Debug) Cache::handleAtomicReqMiss (2) pkt=ReadReq [120cc:120cf] (s) IF UC
  56000: system.l2: (CXL_Debug) Cache::handleAtomicReqMiss (2) pkt=ReadReq [120cc:120cf] (s) IF UC
  56500: system.cpu.icache: (CXL_Debug) Cache::handleAtomicReqMiss (2) pkt=ReadReq [120c0:120c3] (s) IF UC
  56500: system.l2: (CXL_Debug) Cache::handleAtomicReqMiss (2) pkt=ReadReq [120c0:120c3] (s) IF UC
  56500: system.cpu.dcache: (CXL_Debug) Cache::handleAtomicReqMiss pkt=WriteReq [34:37] (s) UC
  56500: system.l2: (CXL_Debug) Cache::handleAtomicReqMiss pkt=WriteReq [34:37] (s) UC
  57500: system.cpu.icache: (CXL_Debug) Cache::handleAtomicReqMiss (2) pkt=ReadReq [120c4:120c7] (s) IF UC
  57500: system.l2: (CXL_Debug) Cache::handleAtomicReqMiss (2) pkt=ReadReq [120c4:120c7] (s) IF UC
  58000: system.cpu.icache: (CXL_Debug) Cache::handleAtomicReqMiss (2) pkt=ReadReq [120c8:120cb] (s) IF UC
  58000: system.l2: (CXL_Debug) Cache::handleAtomicReqMiss (2) pkt=ReadReq [120c8:120cb] (s) IF UC
  58500: system.cpu.icache: (CXL_Debug) Cache::handleAtomicReqMiss (2) pkt=ReadReq [120cc:120cf] (s) IF UC
  58500: system.l2: (CXL_Debug) Cache::handleAtomicReqMiss (2) pkt=ReadReq [120cc:120cf] (s) IF UC
  59000: system.cpu.icache: (CXL_Debug) Cache::handleAtomicReqMiss (2) pkt=ReadReq [120c0:120c3] (s) IF UC
  59000: system.l2: (CXL_Debug) Cache::handleAtomicReqMiss (2) pkt=ReadReq [120c0:120c3] (s) IF UC
  59000: system.cpu.dcache: (CXL_Debug) Cache::handleAtomicReqMiss pkt=WriteReq [38:3b] (s) UC
  59000: system.l2: (CXL_Debug) Cache::handleAtomicReqMiss pkt=WriteReq [38:3b] (s) UC
  60000: system.cpu.icache: (CXL_Debug) Cache::handleAtomicReqMiss (2) pkt=ReadReq [120c4:120c7] (s) IF UC
  60000: system.l2: (CXL_Debug) Cache::handleAtomicReqMiss (2) pkt=ReadReq [120c4:120c7] (s) IF UC
  60500: system.cpu.icache: (CXL_Debug) Cache::handleAtomicReqMiss (2) pkt=ReadReq [120c8:120cb] (s) IF UC
  60500: system.l2: (CXL_Debug) Cache::handleAtomicReqMiss (2) pkt=ReadReq [120c8:120cb] (s) IF UC
  61000: system.cpu.icache: (CXL_Debug) Cache::handleAtomicReqMiss (2) pkt=ReadReq [120cc:120cf] (s) IF UC
  61000: system.l2: (CXL_Debug) Cache::handleAtomicReqMiss (2) pkt=ReadReq [120cc:120cf] (s) IF UC
  61500: system.cpu.icache: (CXL_Debug) Cache::handleAtomicReqMiss (2) pkt=ReadReq [120c0:120c3] (s) IF UC
  61500: system.l2: (CXL_Debug) Cache::handleAtomicReqMiss (2) pkt=ReadReq [120c0:120c3] (s) IF UC
  61500: system.cpu.dcache: (CXL_Debug) Cache::handleAtomicReqMiss pkt=WriteReq [3c:3f] (s) UC
  61500: system.l2: (CXL_Debug) Cache::handleAtomicReqMiss pkt=WriteReq [3c:3f] (s) UC
  62500: system.cpu.icache: (CXL_Debug) Cache::handleAtomicReqMiss (2) pkt=ReadReq [120c4:120c7] (s) IF UC
  62500: system.l2: (CXL_Debug) Cache::handleAtomicReqMiss (2) pkt=ReadReq [120c4:120c7] (s) IF UC
  63000: system.cpu.icache: (CXL_Debug) Cache::handleAtomicReqMiss (2) pkt=ReadReq [120c8:120cb] (s) IF UC
  63000: system.l2: (CXL_Debug) Cache::handleAtomicReqMiss (2) pkt=ReadReq [120c8:120cb] (s) IF UC
  63500: system.cpu.icache: (CXL_Debug) Cache::handleAtomicReqMiss (2) pkt=ReadReq [120cc:120cf] (s) IF UC
  63500: system.l2: (CXL_Debug) Cache::handleAtomicReqMiss (2) pkt=ReadReq [120cc:120cf] (s) IF UC
  64000: system.cpu.icache: (CXL_Debug) Cache::handleAtomicReqMiss (2) pkt=ReadReq [120c0:120c3] (s) IF UC
  64000: system.l2: (CXL_Debug) Cache::handleAtomicReqMiss (2) pkt=ReadReq [120c0:120c3] (s) IF UC
  64000: system.cpu.dcache: (CXL_Debug) Cache::handleAtomicReqMiss pkt=WriteReq [40:43] (s) UC
  64000: system.l2: (CXL_Debug) Cache::handleAtomicReqMiss pkt=WriteReq [40:43] (s) UC
  65000: system.cpu.icache: (CXL_Debug) Cache::handleAtomicReqMiss (2) pkt=ReadReq [120c4:120c7] (s) IF UC
  65000: system.l2: (CXL_Debug) Cache::handleAtomicReqMiss (2) pkt=ReadReq [120c4:120c7] (s) IF UC
  65500: system.cpu.icache: (CXL_Debug) Cache::handleAtomicReqMiss (2) pkt=ReadReq [120c8:120cb] (s) IF UC
  65500: system.l2: (CXL_Debug) Cache::handleAtomicReqMiss (2) pkt=ReadReq [120c8:120cb] (s) IF UC
  66000: system.cpu.icache: (CXL_Debug) Cache::handleAtomicReqMiss (2) pkt=ReadReq [120cc:120cf] (s) IF UC
  66000: system.l2: (CXL_Debug) Cache::handleAtomicReqMiss (2) pkt=ReadReq [120cc:120cf] (s) IF UC
  66500: system.cpu.icache: (CXL_Debug) Cache::handleAtomicReqMiss (2) pkt=ReadReq [120c0:120c3] (s) IF UC
  66500: system.l2: (CXL_Debug) Cache::handleAtomicReqMiss (2) pkt=ReadReq [120c0:120c3] (s) IF UC
  66500: system.cpu.dcache: (CXL_Debug) Cache::handleAtomicReqMiss pkt=WriteReq [44:47] (s) UC
  66500: system.l2: (CXL_Debug) Cache::handleAtomicReqMiss pkt=WriteReq [44:47] (s) UC
  67500: system.cpu.icache: (CXL_Debug) Cache::handleAtomicReqMiss (2) pkt=ReadReq [120c4:120c7] (s) IF UC
  67500: system.l2: (CXL_Debug) Cache::handleAtomicReqMiss (2) pkt=ReadReq [120c4:120c7] (s) IF UC
  68000: system.cpu.icache: (CXL_Debug) Cache::handleAtomicReqMiss (2) pkt=ReadReq [120c8:120cb] (s) IF UC
  68000: system.l2: (CXL_Debug) Cache::handleAtomicReqMiss (2) pkt=ReadReq [120c8:120cb] (s) IF UC
  68500: system.cpu.icache: (CXL_Debug) Cache::handleAtomicReqMiss (2) pkt=ReadReq [120cc:120cf] (s) IF UC
  68500: system.l2: (CXL_Debug) Cache::handleAtomicReqMiss (2) pkt=ReadReq [120cc:120cf] (s) IF UC
  69000: system.cpu.icache: (CXL_Debug) Cache::handleAtomicReqMiss (2) pkt=ReadReq [120c0:120c3] (s) IF UC
  69000: system.l2: (CXL_Debug) Cache::handleAtomicReqMiss (2) pkt=ReadReq [120c0:120c3] (s) IF UC
  69000: system.cpu.dcache: (CXL_Debug) Cache::handleAtomicReqMiss pkt=WriteReq [48:4b] (s) UC
  69000: system.l2: (CXL_Debug) Cache::handleAtomicReqMiss pkt=WriteReq [48:4b] (s) UC
  70000: system.cpu.icache: (CXL_Debug) Cache::handleAtomicReqMiss (2) pkt=ReadReq [120c4:120c7] (s) IF UC
  70000: system.l2: (CXL_Debug) Cache::handleAtomicReqMiss (2) pkt=ReadReq [120c4:120c7] (s) IF UC
  70500: system.cpu.icache: (CXL_Debug) Cache::handleAtomicReqMiss (2) pkt=ReadReq [120c8:120cb] (s) IF UC
  70500: system.l2: (CXL_Debug) Cache::handleAtomicReqMiss (2) pkt=ReadReq [120c8:120cb] (s) IF UC
  71000: system.cpu.icache: (CXL_Debug) Cache::handleAtomicReqMiss (2) pkt=ReadReq [120cc:120cf] (s) IF UC
  71000: system.l2: (CXL_Debug) Cache::handleAtomicReqMiss (2) pkt=ReadReq [120cc:120cf] (s) IF UC
  71500: system.cpu.icache: (CXL_Debug) Cache::handleAtomicReqMiss (2) pkt=ReadReq [120c0:120c3] (s) IF UC
  71500: system.l2: (CXL_Debug) Cache::handleAtomicReqMiss (2) pkt=ReadReq [120c0:120c3] (s) IF UC
  71500: system.cpu.dcache: (CXL_Debug) Cache::handleAtomicReqMiss pkt=WriteReq [4c:4f] (s) UC
  71500: system.l2: (CXL_Debug) Cache::handleAtomicReqMiss pkt=WriteReq [4c:4f] (s) UC
  72500: system.cpu.icache: (CXL_Debug) Cache::handleAtomicReqMiss (2) pkt=ReadReq [120c4:120c7] (s) IF UC
  72500: system.l2: (CXL_Debug) Cache::handleAtomicReqMiss (2) pkt=ReadReq [120c4:120c7] (s) IF UC
  73000: system.cpu.icache: (CXL_Debug) Cache::handleAtomicReqMiss (2) pkt=ReadReq [120c8:120cb] (s) IF UC
  73000: system.l2: (CXL_Debug) Cache::handleAtomicReqMiss (2) pkt=ReadReq [120c8:120cb] (s) IF UC
  73500: system.cpu.icache: (CXL_Debug) Cache::handleAtomicReqMiss (2) pkt=ReadReq [120cc:120cf] (s) IF UC
  73500: system.l2: (CXL_Debug) Cache::handleAtomicReqMiss (2) pkt=ReadReq [120cc:120cf] (s) IF UC
  74000: system.cpu.icache: (CXL_Debug) Cache::handleAtomicReqMiss (2) pkt=ReadReq [120c0:120c3] (s) IF UC
  74000: system.l2: (CXL_Debug) Cache::handleAtomicReqMiss (2) pkt=ReadReq [120c0:120c3] (s) IF UC
  74000: system.cpu.dcache: (CXL_Debug) Cache::handleAtomicReqMiss pkt=WriteReq [50:53] (s) UC
  74000: system.l2: (CXL_Debug) Cache::handleAtomicReqMiss pkt=WriteReq [50:53] (s) UC
  75000: system.cpu.icache: (CXL_Debug) Cache::handleAtomicReqMiss (2) pkt=ReadReq [120c4:120c7] (s) IF UC
  75000: system.l2: (CXL_Debug) Cache::handleAtomicReqMiss (2) pkt=ReadReq [120c4:120c7] (s) IF UC
  75500: system.cpu.icache: (CXL_Debug) Cache::handleAtomicReqMiss (2) pkt=ReadReq [120c8:120cb] (s) IF UC
  75500: system.l2: (CXL_Debug) Cache::handleAtomicReqMiss (2) pkt=ReadReq [120c8:120cb] (s) IF UC
  76000: system.cpu.icache: (CXL_Debug) Cache::handleAtomicReqMiss (2) pkt=ReadReq [120cc:120cf] (s) IF UC
  76000: system.l2: (CXL_Debug) Cache::handleAtomicReqMiss (2) pkt=ReadReq [120cc:120cf] (s) IF UC
  76500: system.cpu.icache: (CXL_Debug) Cache::handleAtomicReqMiss (2) pkt=ReadReq [120c0:120c3] (s) IF UC
  76500: system.l2: (CXL_Debug) Cache::handleAtomicReqMiss (2) pkt=ReadReq [120c0:120c3] (s) IF UC
  76500: system.cpu.dcache: (CXL_Debug) Cache::handleAtomicReqMiss pkt=WriteReq [54:57] (s) UC
  76500: system.l2: (CXL_Debug) Cache::handleAtomicReqMiss pkt=WriteReq [54:57] (s) UC
  77500: system.cpu.icache: (CXL_Debug) Cache::handleAtomicReqMiss (2) pkt=ReadReq [120c4:120c7] (s) IF UC
  77500: system.l2: (CXL_Debug) Cache::handleAtomicReqMiss (2) pkt=ReadReq [120c4:120c7] (s) IF UC
  78000: system.cpu.icache: (CXL_Debug) Cache::handleAtomicReqMiss (2) pkt=ReadReq [120c8:120cb] (s) IF UC
  78000: system.l2: (CXL_Debug) Cache::handleAtomicReqMiss (2) pkt=ReadReq [120c8:120cb] (s) IF UC
  78500: system.cpu.icache: (CXL_Debug) Cache::handleAtomicReqMiss (2) pkt=ReadReq [120cc:120cf] (s) IF UC
  78500: system.l2: (CXL_Debug) Cache::handleAtomicReqMiss (2) pkt=ReadReq [120cc:120cf] (s) IF UC
  79000: system.cpu.icache: (CXL_Debug) Cache::handleAtomicReqMiss (2) pkt=ReadReq [120c0:120c3] (s) IF UC
  79000: system.l2: (CXL_Debug) Cache::handleAtomicReqMiss (2) pkt=ReadReq [120c0:120c3] (s) IF UC
  79000: system.cpu.dcache: (CXL_Debug) Cache::handleAtomicReqMiss pkt=WriteReq [58:5b] (s) UC
  79000: system.l2: (CXL_Debug) Cache::handleAtomicReqMiss pkt=WriteReq [58:5b] (s) UC
  80000: system.cpu.icache: (CXL_Debug) Cache::handleAtomicReqMiss (2) pkt=ReadReq [120c4:120c7] (s) IF UC
  80000: system.l2: (CXL_Debug) Cache::handleAtomicReqMiss (2) pkt=ReadReq [120c4:120c7] (s) IF UC
  80500: system.cpu.icache: (CXL_Debug) Cache::handleAtomicReqMiss (2) pkt=ReadReq [120c8:120cb] (s) IF UC
  80500: system.l2: (CXL_Debug) Cache::handleAtomicReqMiss (2) pkt=ReadReq [120c8:120cb] (s) IF UC
  81000: system.cpu.icache: (CXL_Debug) Cache::handleAtomicReqMiss (2) pkt=ReadReq [120cc:120cf] (s) IF UC
  81000: system.l2: (CXL_Debug) Cache::handleAtomicReqMiss (2) pkt=ReadReq [120cc:120cf] (s) IF UC
  81500: system.cpu.icache: (CXL_Debug) Cache::handleAtomicReqMiss (2) pkt=ReadReq [120c0:120c3] (s) IF UC
  81500: system.l2: (CXL_Debug) Cache::handleAtomicReqMiss (2) pkt=ReadReq [120c0:120c3] (s) IF UC
  81500: system.cpu.dcache: (CXL_Debug) Cache::handleAtomicReqMiss pkt=WriteReq [5c:5f] (s) UC
  81500: system.l2: (CXL_Debug) Cache::handleAtomicReqMiss pkt=WriteReq [5c:5f] (s) UC
  82500: system.cpu.icache: (CXL_Debug) Cache::handleAtomicReqMiss (2) pkt=ReadReq [120c4:120c7] (s) IF UC
  82500: system.l2: (CXL_Debug) Cache::handleAtomicReqMiss (2) pkt=ReadReq [120c4:120c7] (s) IF UC
  83000: system.cpu.icache: (CXL_Debug) Cache::handleAtomicReqMiss (2) pkt=ReadReq [120c8:120cb] (s) IF UC
  83000: system.l2: (CXL_Debug) Cache::handleAtomicReqMiss (2) pkt=ReadReq [120c8:120cb] (s) IF UC
  83500: system.cpu.icache: (CXL_Debug) Cache::handleAtomicReqMiss (2) pkt=ReadReq [120cc:120cf] (s) IF UC
  83500: system.l2: (CXL_Debug) Cache::handleAtomicReqMiss (2) pkt=ReadReq [120cc:120cf] (s) IF UC
  84000: system.cpu.icache: (CXL_Debug) Cache::handleAtomicReqMiss (2) pkt=ReadReq [120c0:120c3] (s) IF UC
  84000: system.l2: (CXL_Debug) Cache::handleAtomicReqMiss (2) pkt=ReadReq [120c0:120c3] (s) IF UC
  84000: system.cpu.dcache: (CXL_Debug) Cache::handleAtomicReqMiss pkt=WriteReq [60:63] (s) UC
  84000: system.l2: (CXL_Debug) Cache::handleAtomicReqMiss pkt=WriteReq [60:63] (s) UC
  85000: system.cpu.icache: (CXL_Debug) Cache::handleAtomicReqMiss (2) pkt=ReadReq [120c4:120c7] (s) IF UC
  85000: system.l2: (CXL_Debug) Cache::handleAtomicReqMiss (2) pkt=ReadReq [120c4:120c7] (s) IF UC
  85500: system.cpu.icache: (CXL_Debug) Cache::handleAtomicReqMiss (2) pkt=ReadReq [120c8:120cb] (s) IF UC
  85500: system.l2: (CXL_Debug) Cache::handleAtomicReqMiss (2) pkt=ReadReq [120c8:120cb] (s) IF UC
  86000: system.cpu.icache: (CXL_Debug) Cache::handleAtomicReqMiss (2) pkt=ReadReq [120cc:120cf] (s) IF UC
  86000: system.l2: (CXL_Debug) Cache::handleAtomicReqMiss (2) pkt=ReadReq [120cc:120cf] (s) IF UC
  86500: system.cpu.icache: (CXL_Debug) Cache::handleAtomicReqMiss (2) pkt=ReadReq [120c0:120c3] (s) IF UC
  86500: system.l2: (CXL_Debug) Cache::handleAtomicReqMiss (2) pkt=ReadReq [120c0:120c3] (s) IF UC
  86500: system.cpu.dcache: (CXL_Debug) Cache::handleAtomicReqMiss pkt=WriteReq [64:67] (s) UC
  86500: system.l2: (CXL_Debug) Cache::handleAtomicReqMiss pkt=WriteReq [64:67] (s) UC
  87500: system.cpu.icache: (CXL_Debug) Cache::handleAtomicReqMiss (2) pkt=ReadReq [120c4:120c7] (s) IF UC
  87500: system.l2: (CXL_Debug) Cache::handleAtomicReqMiss (2) pkt=ReadReq [120c4:120c7] (s) IF UC
  88000: system.cpu.icache: (CXL_Debug) Cache::handleAtomicReqMiss (2) pkt=ReadReq [120c8:120cb] (s) IF UC
  88000: system.l2: (CXL_Debug) Cache::handleAtomicReqMiss (2) pkt=ReadReq [120c8:120cb] (s) IF UC
  88500: system.cpu.icache: (CXL_Debug) Cache::handleAtomicReqMiss (2) pkt=ReadReq [120cc:120cf] (s) IF UC
  88500: system.l2: (CXL_Debug) Cache::handleAtomicReqMiss (2) pkt=ReadReq [120cc:120cf] (s) IF UC
  89000: system.cpu.icache: (CXL_Debug) Cache::handleAtomicReqMiss (2) pkt=ReadReq [120c0:120c3] (s) IF UC
  89000: system.l2: (CXL_Debug) Cache::handleAtomicReqMiss (2) pkt=ReadReq [120c0:120c3] (s) IF UC
  89000: system.cpu.dcache: (CXL_Debug) Cache::handleAtomicReqMiss pkt=WriteReq [68:6b] (s) UC
  89000: system.l2: (CXL_Debug) Cache::handleAtomicReqMiss pkt=WriteReq [68:6b] (s) UC
  90000: system.cpu.icache: (CXL_Debug) Cache::handleAtomicReqMiss (2) pkt=ReadReq [120c4:120c7] (s) IF UC
  90000: system.l2: (CXL_Debug) Cache::handleAtomicReqMiss (2) pkt=ReadReq [120c4:120c7] (s) IF UC
  90500: system.cpu.icache: (CXL_Debug) Cache::handleAtomicReqMiss (2) pkt=ReadReq [120c8:120cb] (s) IF UC
  90500: system.l2: (CXL_Debug) Cache::handleAtomicReqMiss (2) pkt=ReadReq [120c8:120cb] (s) IF UC
  91000: system.cpu.icache: (CXL_Debug) Cache::handleAtomicReqMiss (2) pkt=ReadReq [120cc:120cf] (s) IF UC
  91000: system.l2: (CXL_Debug) Cache::handleAtomicReqMiss (2) pkt=ReadReq [120cc:120cf] (s) IF UC
  91500: system.cpu.icache: (CXL_Debug) Cache::handleAtomicReqMiss (2) pkt=ReadReq [120c0:120c3] (s) IF UC
  91500: system.l2: (CXL_Debug) Cache::handleAtomicReqMiss (2) pkt=ReadReq [120c0:120c3] (s) IF UC
  91500: system.cpu.dcache: (CXL_Debug) Cache::handleAtomicReqMiss pkt=WriteReq [6c:6f] (s) UC
  91500: system.l2: (CXL_Debug) Cache::handleAtomicReqMiss pkt=WriteReq [6c:6f] (s) UC
  92500: system.cpu.icache: (CXL_Debug) Cache::handleAtomicReqMiss (2) pkt=ReadReq [120c4:120c7] (s) IF UC
  92500: system.l2: (CXL_Debug) Cache::handleAtomicReqMiss (2) pkt=ReadReq [120c4:120c7] (s) IF UC
  93000: system.cpu.icache: (CXL_Debug) Cache::handleAtomicReqMiss (2) pkt=ReadReq [120c8:120cb] (s) IF UC
  93000: system.l2: (CXL_Debug) Cache::handleAtomicReqMiss (2) pkt=ReadReq [120c8:120cb] (s) IF UC
  93500: system.cpu.icache: (CXL_Debug) Cache::handleAtomicReqMiss (2) pkt=ReadReq [120cc:120cf] (s) IF UC
  93500: system.l2: (CXL_Debug) Cache::handleAtomicReqMiss (2) pkt=ReadReq [120cc:120cf] (s) IF UC
  94000: system.cpu.icache: (CXL_Debug) Cache::handleAtomicReqMiss (2) pkt=ReadReq [120c0:120c3] (s) IF UC
  94000: system.l2: (CXL_Debug) Cache::handleAtomicReqMiss (2) pkt=ReadReq [120c0:120c3] (s) IF UC
  94000: system.cpu.dcache: (CXL_Debug) Cache::handleAtomicReqMiss pkt=WriteReq [70:73] (s) UC
  94000: system.l2: (CXL_Debug) Cache::handleAtomicReqMiss pkt=WriteReq [70:73] (s) UC
  95000: system.cpu.icache: (CXL_Debug) Cache::handleAtomicReqMiss (2) pkt=ReadReq [120c4:120c7] (s) IF UC
  95000: system.l2: (CXL_Debug) Cache::handleAtomicReqMiss (2) pkt=ReadReq [120c4:120c7] (s) IF UC
  95500: system.cpu.icache: (CXL_Debug) Cache::handleAtomicReqMiss (2) pkt=ReadReq [120c8:120cb] (s) IF UC
  95500: system.l2: (CXL_Debug) Cache::handleAtomicReqMiss (2) pkt=ReadReq [120c8:120cb] (s) IF UC
  96000: system.cpu.icache: (CXL_Debug) Cache::handleAtomicReqMiss (2) pkt=ReadReq [120cc:120cf] (s) IF UC
  96000: system.l2: (CXL_Debug) Cache::handleAtomicReqMiss (2) pkt=ReadReq [120cc:120cf] (s) IF UC
  96500: system.cpu.icache: (CXL_Debug) Cache::handleAtomicReqMiss (2) pkt=ReadReq [120c0:120c3] (s) IF UC
  96500: system.l2: (CXL_Debug) Cache::handleAtomicReqMiss (2) pkt=ReadReq [120c0:120c3] (s) IF UC
  96500: system.cpu.dcache: (CXL_Debug) Cache::handleAtomicReqMiss pkt=WriteReq [74:77] (s) UC
  96500: system.l2: (CXL_Debug) Cache::handleAtomicReqMiss pkt=WriteReq [74:77] (s) UC
  97500: system.cpu.icache: (CXL_Debug) Cache::handleAtomicReqMiss (2) pkt=ReadReq [120c4:120c7] (s) IF UC
  97500: system.l2: (CXL_Debug) Cache::handleAtomicReqMiss (2) pkt=ReadReq [120c4:120c7] (s) IF UC
  98000: system.cpu.icache: (CXL_Debug) Cache::handleAtomicReqMiss (2) pkt=ReadReq [120c8:120cb] (s) IF UC
  98000: system.l2: (CXL_Debug) Cache::handleAtomicReqMiss (2) pkt=ReadReq [120c8:120cb] (s) IF UC
  98500: system.cpu.icache: (CXL_Debug) Cache::handleAtomicReqMiss (2) pkt=ReadReq [120cc:120cf] (s) IF UC
  98500: system.l2: (CXL_Debug) Cache::handleAtomicReqMiss (2) pkt=ReadReq [120cc:120cf] (s) IF UC
  99000: system.cpu.icache: (CXL_Debug) Cache::handleAtomicReqMiss (2) pkt=ReadReq [120c0:120c3] (s) IF UC
  99000: system.l2: (CXL_Debug) Cache::handleAtomicReqMiss (2) pkt=ReadReq [120c0:120c3] (s) IF UC
  99000: system.cpu.dcache: (CXL_Debug) Cache::handleAtomicReqMiss pkt=WriteReq [78:7b] (s) UC
  99000: system.l2: (CXL_Debug) Cache::handleAtomicReqMiss pkt=WriteReq [78:7b] (s) UC
 100000: system.cpu.icache: (CXL_Debug) Cache::handleAtomicReqMiss (2) pkt=ReadReq [120c4:120c7] (s) IF UC
 100000: system.l2: (CXL_Debug) Cache::handleAtomicReqMiss (2) pkt=ReadReq [120c4:120c7] (s) IF UC
 100500: system.cpu.icache: (CXL_Debug) Cache::handleAtomicReqMiss (2) pkt=ReadReq [120c8:120cb] (s) IF UC
 100500: system.l2: (CXL_Debug) Cache::handleAtomicReqMiss (2) pkt=ReadReq [120c8:120cb] (s) IF UC
 101000: system.cpu.icache: (CXL_Debug) Cache::handleAtomicReqMiss (2) pkt=ReadReq [120cc:120cf] (s) IF UC
 101000: system.l2: (CXL_Debug) Cache::handleAtomicReqMiss (2) pkt=ReadReq [120cc:120cf] (s) IF UC
 101500: system.cpu.icache: (CXL_Debug) Cache::handleAtomicReqMiss (2) pkt=ReadReq [120c0:120c3] (s) IF UC
 101500: system.l2: (CXL_Debug) Cache::handleAtomicReqMiss (2) pkt=ReadReq [120c0:120c3] (s) IF UC
 101500: system.cpu.dcache: (CXL_Debug) Cache::handleAtomicReqMiss pkt=WriteReq [7c:7f] (s) UC
 101500: system.l2: (CXL_Debug) Cache::handleAtomicReqMiss pkt=WriteReq [7c:7f] (s) UC
 102500: system.cpu.icache: (CXL_Debug) Cache::handleAtomicReqMiss (2) pkt=ReadReq [120c4:120c7] (s) IF UC
 102500: system.l2: (CXL_Debug) Cache::handleAtomicReqMiss (2) pkt=ReadReq [120c4:120c7] (s) IF UC
 103000: system.cpu.icache: (CXL_Debug) Cache::handleAtomicReqMiss (2) pkt=ReadReq [120c8:120cb] (s) IF UC
 103000: system.l2: (CXL_Debug) Cache::handleAtomicReqMiss (2) pkt=ReadReq [120c8:120cb] (s) IF UC
 103500: system.cpu.icache: (CXL_Debug) Cache::handleAtomicReqMiss (2) pkt=ReadReq [120cc:120cf] (s) IF UC
 103500: system.l2: (CXL_Debug) Cache::handleAtomicReqMiss (2) pkt=ReadReq [120cc:120cf] (s) IF UC
 104000: system.cpu.icache: (CXL_Debug) Cache::handleAtomicReqMiss (2) pkt=ReadReq [120c0:120c3] (s) IF UC
 104000: system.l2: (CXL_Debug) Cache::handleAtomicReqMiss (2) pkt=ReadReq [120c0:120c3] (s) IF UC
 104000: system.cpu.dcache: (CXL_Debug) Cache::handleAtomicReqMiss pkt=WriteReq [80:83] (s) UC
 104000: system.l2: (CXL_Debug) Cache::handleAtomicReqMiss pkt=WriteReq [80:83] (s) UC
 105000: system.cpu.icache: (CXL_Debug) Cache::handleAtomicReqMiss (2) pkt=ReadReq [120c4:120c7] (s) IF UC
 105000: system.l2: (CXL_Debug) Cache::handleAtomicReqMiss (2) pkt=ReadReq [120c4:120c7] (s) IF UC
 105500: system.cpu.icache: (CXL_Debug) Cache::handleAtomicReqMiss (2) pkt=ReadReq [120c8:120cb] (s) IF UC
 105500: system.l2: (CXL_Debug) Cache::handleAtomicReqMiss (2) pkt=ReadReq [120c8:120cb] (s) IF UC
 106000: system.cpu.icache: (CXL_Debug) Cache::handleAtomicReqMiss (2) pkt=ReadReq [120cc:120cf] (s) IF UC
 106000: system.l2: (CXL_Debug) Cache::handleAtomicReqMiss (2) pkt=ReadReq [120cc:120cf] (s) IF UC
 106500: system.cpu.icache: (CXL_Debug) Cache::handleAtomicReqMiss (2) pkt=ReadReq [120c0:120c3] (s) IF UC
 106500: system.l2: (CXL_Debug) Cache::handleAtomicReqMiss (2) pkt=ReadReq [120c0:120c3] (s) IF UC
 106500: system.cpu.dcache: (CXL_Debug) Cache::handleAtomicReqMiss pkt=WriteReq [84:87] (s) UC
 106500: system.l2: (CXL_Debug) Cache::handleAtomicReqMiss pkt=WriteReq [84:87] (s) UC
 107500: system.cpu.icache: (CXL_Debug) Cache::handleAtomicReqMiss (2) pkt=ReadReq [120c4:120c7] (s) IF UC
 107500: system.l2: (CXL_Debug) Cache::handleAtomicReqMiss (2) pkt=ReadReq [120c4:120c7] (s) IF UC
 108000: system.cpu.icache: (CXL_Debug) Cache::handleAtomicReqMiss (2) pkt=ReadReq [120c8:120cb] (s) IF UC
 108000: system.l2: (CXL_Debug) Cache::handleAtomicReqMiss (2) pkt=ReadReq [120c8:120cb] (s) IF UC
 108500: system.cpu.icache: (CXL_Debug) Cache::handleAtomicReqMiss (2) pkt=ReadReq [120cc:120cf] (s) IF UC
 108500: system.l2: (CXL_Debug) Cache::handleAtomicReqMiss (2) pkt=ReadReq [120cc:120cf] (s) IF UC
 109000: system.cpu.icache: (CXL_Debug) Cache::handleAtomicReqMiss (2) pkt=ReadReq [120c0:120c3] (s) IF UC
 109000: system.l2: (CXL_Debug) Cache::handleAtomicReqMiss (2) pkt=ReadReq [120c0:120c3] (s) IF UC
 109000: system.cpu.dcache: (CXL_Debug) Cache::handleAtomicReqMiss pkt=WriteReq [88:8b] (s) UC
 109000: system.l2: (CXL_Debug) Cache::handleAtomicReqMiss pkt=WriteReq [88:8b] (s) UC
 110000: system.cpu.icache: (CXL_Debug) Cache::handleAtomicReqMiss (2) pkt=ReadReq [120c4:120c7] (s) IF UC
 110000: system.l2: (CXL_Debug) Cache::handleAtomicReqMiss (2) pkt=ReadReq [120c4:120c7] (s) IF UC
 110500: system.cpu.icache: (CXL_Debug) Cache::handleAtomicReqMiss (2) pkt=ReadReq [120c8:120cb] (s) IF UC
 110500: system.l2: (CXL_Debug) Cache::handleAtomicReqMiss (2) pkt=ReadReq [120c8:120cb] (s) IF UC
 111000: system.cpu.icache: (CXL_Debug) Cache::handleAtomicReqMiss (2) pkt=ReadReq [120cc:120cf] (s) IF UC
 111000: system.l2: (CXL_Debug) Cache::handleAtomicReqMiss (2) pkt=ReadReq [120cc:120cf] (s) IF UC
 111500: system.cpu.icache: (CXL_Debug) Cache::handleAtomicReqMiss (2) pkt=ReadReq [120c0:120c3] (s) IF UC
 111500: system.l2: (CXL_Debug) Cache::handleAtomicReqMiss (2) pkt=ReadReq [120c0:120c3] (s) IF UC
 111500: system.cpu.dcache: (CXL_Debug) Cache::handleAtomicReqMiss pkt=WriteReq [8c:8f] (s) UC
 111500: system.l2: (CXL_Debug) Cache::handleAtomicReqMiss pkt=WriteReq [8c:8f] (s) UC
 112500: system.cpu.icache: (CXL_Debug) Cache::handleAtomicReqMiss (2) pkt=ReadReq [120c4:120c7] (s) IF UC
 112500: system.l2: (CXL_Debug) Cache::handleAtomicReqMiss (2) pkt=ReadReq [120c4:120c7] (s) IF UC
 113000: system.cpu.icache: (CXL_Debug) Cache::handleAtomicReqMiss (2) pkt=ReadReq [120c8:120cb] (s) IF UC
 113000: system.l2: (CXL_Debug) Cache::handleAtomicReqMiss (2) pkt=ReadReq [120c8:120cb] (s) IF UC
 113500: system.cpu.icache: (CXL_Debug) Cache::handleAtomicReqMiss (2) pkt=ReadReq [120cc:120cf] (s) IF UC
 113500: system.l2: (CXL_Debug) Cache::handleAtomicReqMiss (2) pkt=ReadReq [120cc:120cf] (s) IF UC
 114000: system.cpu.icache: (CXL_Debug) Cache::handleAtomicReqMiss (2) pkt=ReadReq [120c0:120c3] (s) IF UC
 114000: system.l2: (CXL_Debug) Cache::handleAtomicReqMiss (2) pkt=ReadReq [120c0:120c3] (s) IF UC
 114000: system.cpu.dcache: (CXL_Debug) Cache::handleAtomicReqMiss pkt=WriteReq [90:93] (s) UC
 114000: system.l2: (CXL_Debug) Cache::handleAtomicReqMiss pkt=WriteReq [90:93] (s) UC
 115000: system.cpu.icache: (CXL_Debug) Cache::handleAtomicReqMiss (2) pkt=ReadReq [120c4:120c7] (s) IF UC
 115000: system.l2: (CXL_Debug) Cache::handleAtomicReqMiss (2) pkt=ReadReq [120c4:120c7] (s) IF UC
 115500: system.cpu.icache: (CXL_Debug) Cache::handleAtomicReqMiss (2) pkt=ReadReq [120c8:120cb] (s) IF UC
 115500: system.l2: (CXL_Debug) Cache::handleAtomicReqMiss (2) pkt=ReadReq [120c8:120cb] (s) IF UC
 116000: system.cpu.icache: (CXL_Debug) Cache::handleAtomicReqMiss (2) pkt=ReadReq [120cc:120cf] (s) IF UC
 116000: system.l2: (CXL_Debug) Cache::handleAtomicReqMiss (2) pkt=ReadReq [120cc:120cf] (s) IF UC
 116500: system.cpu.icache: (CXL_Debug) Cache::handleAtomicReqMiss (2) pkt=ReadReq [120c0:120c3] (s) IF UC
 116500: system.l2: (CXL_Debug) Cache::handleAtomicReqMiss (2) pkt=ReadReq [120c0:120c3] (s) IF UC
 116500: system.cpu.dcache: (CXL_Debug) Cache::handleAtomicReqMiss pkt=WriteReq [94:97] (s) UC
 116500: system.l2: (CXL_Debug) Cache::handleAtomicReqMiss pkt=WriteReq [94:97] (s) UC
 117500: system.cpu.icache: (CXL_Debug) Cache::handleAtomicReqMiss (2) pkt=ReadReq [120c4:120c7] (s) IF UC
 117500: system.l2: (CXL_Debug) Cache::handleAtomicReqMiss (2) pkt=ReadReq [120c4:120c7] (s) IF UC
 118000: system.cpu.icache: (CXL_Debug) Cache::handleAtomicReqMiss (2) pkt=ReadReq [120c8:120cb] (s) IF UC
 118000: system.l2: (CXL_Debug) Cache::handleAtomicReqMiss (2) pkt=ReadReq [120c8:120cb] (s) IF UC
 118500: system.cpu.icache: (CXL_Debug) Cache::handleAtomicReqMiss (2) pkt=ReadReq [120cc:120cf] (s) IF UC
 118500: system.l2: (CXL_Debug) Cache::handleAtomicReqMiss (2) pkt=ReadReq [120cc:120cf] (s) IF UC
 119000: system.cpu.icache: (CXL_Debug) Cache::handleAtomicReqMiss (2) pkt=ReadReq [120c0:120c3] (s) IF UC
 119000: system.l2: (CXL_Debug) Cache::handleAtomicReqMiss (2) pkt=ReadReq [120c0:120c3] (s) IF UC
 119000: system.cpu.dcache: (CXL_Debug) Cache::handleAtomicReqMiss pkt=WriteReq [98:9b] (s) UC
 119000: system.l2: (CXL_Debug) Cache::handleAtomicReqMiss pkt=WriteReq [98:9b] (s) UC
 120000: system.cpu.icache: (CXL_Debug) Cache::handleAtomicReqMiss (2) pkt=ReadReq [120c4:120c7] (s) IF UC
 120000: system.l2: (CXL_Debug) Cache::handleAtomicReqMiss (2) pkt=ReadReq [120c4:120c7] (s) IF UC
 120500: system.cpu.icache: (CXL_Debug) Cache::handleAtomicReqMiss (2) pkt=ReadReq [120c8:120cb] (s) IF UC
 120500: system.l2: (CXL_Debug) Cache::handleAtomicReqMiss (2) pkt=ReadReq [120c8:120cb] (s) IF UC
 121000: system.cpu.icache: (CXL_Debug) Cache::handleAtomicReqMiss (2) pkt=ReadReq [120cc:120cf] (s) IF UC
 121000: system.l2: (CXL_Debug) Cache::handleAtomicReqMiss (2) pkt=ReadReq [120cc:120cf] (s) IF UC
 121500: system.cpu.icache: (CXL_Debug) Cache::handleAtomicReqMiss (2) pkt=ReadReq [120c0:120c3] (s) IF UC
 121500: system.l2: (CXL_Debug) Cache::handleAtomicReqMiss (2) pkt=ReadReq [120c0:120c3] (s) IF UC
 121500: system.cpu.dcache: (CXL_Debug) Cache::handleAtomicReqMiss pkt=WriteReq [9c:9f] (s) UC
 121500: system.l2: (CXL_Debug) Cache::handleAtomicReqMiss pkt=WriteReq [9c:9f] (s) UC
 122500: system.cpu.icache: (CXL_Debug) Cache::handleAtomicReqMiss (2) pkt=ReadReq [120c4:120c7] (s) IF UC
 122500: system.l2: (CXL_Debug) Cache::handleAtomicReqMiss (2) pkt=ReadReq [120c4:120c7] (s) IF UC
 123000: system.cpu.icache: (CXL_Debug) Cache::handleAtomicReqMiss (2) pkt=ReadReq [120c8:120cb] (s) IF UC
 123000: system.l2: (CXL_Debug) Cache::handleAtomicReqMiss (2) pkt=ReadReq [120c8:120cb] (s) IF UC
 123500: system.cpu.icache: (CXL_Debug) Cache::handleAtomicReqMiss (2) pkt=ReadReq [120cc:120cf] (s) IF UC
 123500: system.l2: (CXL_Debug) Cache::handleAtomicReqMiss (2) pkt=ReadReq [120cc:120cf] (s) IF UC
 124000: system.cpu.icache: (CXL_Debug) Cache::handleAtomicReqMiss (2) pkt=ReadReq [120c0:120c3] (s) IF UC
 124000: system.l2: (CXL_Debug) Cache::handleAtomicReqMiss (2) pkt=ReadReq [120c0:120c3] (s) IF UC
 124000: system.cpu.dcache: (CXL_Debug) Cache::handleAtomicReqMiss pkt=WriteReq [a0:a3] (s) UC
 124000: system.l2: (CXL_Debug) Cache::handleAtomicReqMiss pkt=WriteReq [a0:a3] (s) UC
 125000: system.cpu.icache: (CXL_Debug) Cache::handleAtomicReqMiss (2) pkt=ReadReq [120c4:120c7] (s) IF UC
 125000: system.l2: (CXL_Debug) Cache::handleAtomicReqMiss (2) pkt=ReadReq [120c4:120c7] (s) IF UC
 125500: system.cpu.icache: (CXL_Debug) Cache::handleAtomicReqMiss (2) pkt=ReadReq [120c8:120cb] (s) IF UC
 125500: system.l2: (CXL_Debug) Cache::handleAtomicReqMiss (2) pkt=ReadReq [120c8:120cb] (s) IF UC
 126000: system.cpu.icache: (CXL_Debug) Cache::handleAtomicReqMiss (2) pkt=ReadReq [120cc:120cf] (s) IF UC
 126000: system.l2: (CXL_Debug) Cache::handleAtomicReqMiss (2) pkt=ReadReq [120cc:120cf] (s) IF UC
 126500: system.cpu.icache: (CXL_Debug) Cache::handleAtomicReqMiss (2) pkt=ReadReq [120c0:120c3] (s) IF UC
 126500: system.l2: (CXL_Debug) Cache::handleAtomicReqMiss (2) pkt=ReadReq [120c0:120c3] (s) IF UC
 126500: system.cpu.dcache: (CXL_Debug) Cache::handleAtomicReqMiss pkt=WriteReq [a4:a7] (s) UC
 126500: system.l2: (CXL_Debug) Cache::handleAtomicReqMiss pkt=WriteReq [a4:a7] (s) UC
 127500: system.cpu.icache: (CXL_Debug) Cache::handleAtomicReqMiss (2) pkt=ReadReq [120c4:120c7] (s) IF UC
 127500: system.l2: (CXL_Debug) Cache::handleAtomicReqMiss (2) pkt=ReadReq [120c4:120c7] (s) IF UC
 128000: system.cpu.icache: (CXL_Debug) Cache::handleAtomicReqMiss (2) pkt=ReadReq [120c8:120cb] (s) IF UC
 128000: system.l2: (CXL_Debug) Cache::handleAtomicReqMiss (2) pkt=ReadReq [120c8:120cb] (s) IF UC
 128500: system.cpu.icache: (CXL_Debug) Cache::handleAtomicReqMiss (2) pkt=ReadReq [120cc:120cf] (s) IF UC
 128500: system.l2: (CXL_Debug) Cache::handleAtomicReqMiss (2) pkt=ReadReq [120cc:120cf] (s) IF UC
 129000: system.cpu.icache: (CXL_Debug) Cache::handleAtomicReqMiss (2) pkt=ReadReq [120c0:120c3] (s) IF UC
 129000: system.l2: (CXL_Debug) Cache::handleAtomicReqMiss (2) pkt=ReadReq [120c0:120c3] (s) IF UC
 129000: system.cpu.dcache: (CXL_Debug) Cache::handleAtomicReqMiss pkt=WriteReq [a8:ab] (s) UC
 129000: system.l2: (CXL_Debug) Cache::handleAtomicReqMiss pkt=WriteReq [a8:ab] (s) UC
 130000: system.cpu.icache: (CXL_Debug) Cache::handleAtomicReqMiss (2) pkt=ReadReq [120c4:120c7] (s) IF UC
 130000: system.l2: (CXL_Debug) Cache::handleAtomicReqMiss (2) pkt=ReadReq [120c4:120c7] (s) IF UC
 130500: system.cpu.icache: (CXL_Debug) Cache::handleAtomicReqMiss (2) pkt=ReadReq [120c8:120cb] (s) IF UC
 130500: system.l2: (CXL_Debug) Cache::handleAtomicReqMiss (2) pkt=ReadReq [120c8:120cb] (s) IF UC
 131000: system.cpu.icache: (CXL_Debug) Cache::handleAtomicReqMiss (2) pkt=ReadReq [120cc:120cf] (s) IF UC
 131000: system.l2: (CXL_Debug) Cache::handleAtomicReqMiss (2) pkt=ReadReq [120cc:120cf] (s) IF UC
 131500: system.cpu.icache: (CXL_Debug) Cache::handleAtomicReqMiss (2) pkt=ReadReq [120c0:120c3] (s) IF UC
 131500: system.l2: (CXL_Debug) Cache::handleAtomicReqMiss (2) pkt=ReadReq [120c0:120c3] (s) IF UC
 131500: system.cpu.dcache: (CXL_Debug) Cache::handleAtomicReqMiss pkt=WriteReq [ac:af] (s) UC
 131500: system.l2: (CXL_Debug) Cache::handleAtomicReqMiss pkt=WriteReq [ac:af] (s) UC
 132500: system.cpu.icache: (CXL_Debug) Cache::handleAtomicReqMiss (2) pkt=ReadReq [120c4:120c7] (s) IF UC
 132500: system.l2: (CXL_Debug) Cache::handleAtomicReqMiss (2) pkt=ReadReq [120c4:120c7] (s) IF UC
 133000: system.cpu.icache: (CXL_Debug) Cache::handleAtomicReqMiss (2) pkt=ReadReq [120c8:120cb] (s) IF UC
 133000: system.l2: (CXL_Debug) Cache::handleAtomicReqMiss (2) pkt=ReadReq [120c8:120cb] (s) IF UC
 133500: system.cpu.icache: (CXL_Debug) Cache::handleAtomicReqMiss (2) pkt=ReadReq [120cc:120cf] (s) IF UC
 133500: system.l2: (CXL_Debug) Cache::handleAtomicReqMiss (2) pkt=ReadReq [120cc:120cf] (s) IF UC
 134000: system.cpu.icache: (CXL_Debug) Cache::handleAtomicReqMiss (2) pkt=ReadReq [120c0:120c3] (s) IF UC
 134000: system.l2: (CXL_Debug) Cache::handleAtomicReqMiss (2) pkt=ReadReq [120c0:120c3] (s) IF UC
 134000: system.cpu.dcache: (CXL_Debug) Cache::handleAtomicReqMiss pkt=WriteReq [b0:b3] (s) UC
 134000: system.l2: (CXL_Debug) Cache::handleAtomicReqMiss pkt=WriteReq [b0:b3] (s) UC
 135000: system.cpu.icache: (CXL_Debug) Cache::handleAtomicReqMiss (2) pkt=ReadReq [120c4:120c7] (s) IF UC
 135000: system.l2: (CXL_Debug) Cache::handleAtomicReqMiss (2) pkt=ReadReq [120c4:120c7] (s) IF UC
 135500: system.cpu.icache: (CXL_Debug) Cache::handleAtomicReqMiss (2) pkt=ReadReq [120c8:120cb] (s) IF UC
 135500: system.l2: (CXL_Debug) Cache::handleAtomicReqMiss (2) pkt=ReadReq [120c8:120cb] (s) IF UC
 136000: system.cpu.icache: (CXL_Debug) Cache::handleAtomicReqMiss (2) pkt=ReadReq [120cc:120cf] (s) IF UC
 136000: system.l2: (CXL_Debug) Cache::handleAtomicReqMiss (2) pkt=ReadReq [120cc:120cf] (s) IF UC
 136500: system.cpu.icache: (CXL_Debug) Cache::handleAtomicReqMiss (2) pkt=ReadReq [120c0:120c3] (s) IF UC
 136500: system.l2: (CXL_Debug) Cache::handleAtomicReqMiss (2) pkt=ReadReq [120c0:120c3] (s) IF UC
 136500: system.cpu.dcache: (CXL_Debug) Cache::handleAtomicReqMiss pkt=WriteReq [b4:b7] (s) UC
 136500: system.l2: (CXL_Debug) Cache::handleAtomicReqMiss pkt=WriteReq [b4:b7] (s) UC
 137500: system.cpu.icache: (CXL_Debug) Cache::handleAtomicReqMiss (2) pkt=ReadReq [120c4:120c7] (s) IF UC
 137500: system.l2: (CXL_Debug) Cache::handleAtomicReqMiss (2) pkt=ReadReq [120c4:120c7] (s) IF UC
 138000: system.cpu.icache: (CXL_Debug) Cache::handleAtomicReqMiss (2) pkt=ReadReq [120c8:120cb] (s) IF UC
 138000: system.l2: (CXL_Debug) Cache::handleAtomicReqMiss (2) pkt=ReadReq [120c8:120cb] (s) IF UC
 138500: system.cpu.icache: (CXL_Debug) Cache::handleAtomicReqMiss (2) pkt=ReadReq [120cc:120cf] (s) IF UC
 138500: system.l2: (CXL_Debug) Cache::handleAtomicReqMiss (2) pkt=ReadReq [120cc:120cf] (s) IF UC
 139000: system.cpu.icache: (CXL_Debug) Cache::handleAtomicReqMiss (2) pkt=ReadReq [120c0:120c3] (s) IF UC
 139000: system.l2: (CXL_Debug) Cache::handleAtomicReqMiss (2) pkt=ReadReq [120c0:120c3] (s) IF UC
 139000: system.cpu.dcache: (CXL_Debug) Cache::handleAtomicReqMiss pkt=WriteReq [b8:bb] (s) UC
 139000: system.l2: (CXL_Debug) Cache::handleAtomicReqMiss pkt=WriteReq [b8:bb] (s) UC
 140000: system.cpu.icache: (CXL_Debug) Cache::handleAtomicReqMiss (2) pkt=ReadReq [120c4:120c7] (s) IF UC
 140000: system.l2: (CXL_Debug) Cache::handleAtomicReqMiss (2) pkt=ReadReq [120c4:120c7] (s) IF UC
 140500: system.cpu.icache: (CXL_Debug) Cache::handleAtomicReqMiss (2) pkt=ReadReq [120c8:120cb] (s) IF UC
 140500: system.l2: (CXL_Debug) Cache::handleAtomicReqMiss (2) pkt=ReadReq [120c8:120cb] (s) IF UC
 141000: system.cpu.icache: (CXL_Debug) Cache::handleAtomicReqMiss (2) pkt=ReadReq [120cc:120cf] (s) IF UC
 141000: system.l2: (CXL_Debug) Cache::handleAtomicReqMiss (2) pkt=ReadReq [120cc:120cf] (s) IF UC
 141500: system.cpu.icache: (CXL_Debug) Cache::handleAtomicReqMiss (2) pkt=ReadReq [120c0:120c3] (s) IF UC
 141500: system.l2: (CXL_Debug) Cache::handleAtomicReqMiss (2) pkt=ReadReq [120c0:120c3] (s) IF UC
 141500: system.cpu.dcache: (CXL_Debug) Cache::handleAtomicReqMiss pkt=WriteReq [bc:bf] (s) UC
 141500: system.l2: (CXL_Debug) Cache::handleAtomicReqMiss pkt=WriteReq [bc:bf] (s) UC
 142500: system.cpu.icache: (CXL_Debug) Cache::handleAtomicReqMiss (2) pkt=ReadReq [120c4:120c7] (s) IF UC
 142500: system.l2: (CXL_Debug) Cache::handleAtomicReqMiss (2) pkt=ReadReq [120c4:120c7] (s) IF UC
 143000: system.cpu.icache: (CXL_Debug) Cache::handleAtomicReqMiss (2) pkt=ReadReq [120c8:120cb] (s) IF UC
 143000: system.l2: (CXL_Debug) Cache::handleAtomicReqMiss (2) pkt=ReadReq [120c8:120cb] (s) IF UC
 143500: system.cpu.icache: (CXL_Debug) Cache::handleAtomicReqMiss (2) pkt=ReadReq [120cc:120cf] (s) IF UC
 143500: system.l2: (CXL_Debug) Cache::handleAtomicReqMiss (2) pkt=ReadReq [120cc:120cf] (s) IF UC
 144000: system.cpu.icache: (CXL_Debug) Cache::handleAtomicReqMiss (2) pkt=ReadReq [120c0:120c3] (s) IF UC
 144000: system.l2: (CXL_Debug) Cache::handleAtomicReqMiss (2) pkt=ReadReq [120c0:120c3] (s) IF UC
 144000: system.cpu.dcache: (CXL_Debug) Cache::handleAtomicReqMiss pkt=WriteReq [c0:c3] (s) UC
 144000: system.l2: (CXL_Debug) Cache::handleAtomicReqMiss pkt=WriteReq [c0:c3] (s) UC
 145000: system.cpu.icache: (CXL_Debug) Cache::handleAtomicReqMiss (2) pkt=ReadReq [120c4:120c7] (s) IF UC
 145000: system.l2: (CXL_Debug) Cache::handleAtomicReqMiss (2) pkt=ReadReq [120c4:120c7] (s) IF UC
 145500: system.cpu.icache: (CXL_Debug) Cache::handleAtomicReqMiss (2) pkt=ReadReq [120c8:120cb] (s) IF UC
 145500: system.l2: (CXL_Debug) Cache::handleAtomicReqMiss (2) pkt=ReadReq [120c8:120cb] (s) IF UC
 146000: system.cpu.icache: (CXL_Debug) Cache::handleAtomicReqMiss (2) pkt=ReadReq [120cc:120cf] (s) IF UC
 146000: system.l2: (CXL_Debug) Cache::handleAtomicReqMiss (2) pkt=ReadReq [120cc:120cf] (s) IF UC
 146500: system.cpu.icache: (CXL_Debug) Cache::handleAtomicReqMiss (2) pkt=ReadReq [120c0:120c3] (s) IF UC
 146500: system.l2: (CXL_Debug) Cache::handleAtomicReqMiss (2) pkt=ReadReq [120c0:120c3] (s) IF UC
 146500: system.cpu.dcache: (CXL_Debug) Cache::handleAtomicReqMiss pkt=WriteReq [c4:c7] (s) UC
 146500: system.l2: (CXL_Debug) Cache::handleAtomicReqMiss pkt=WriteReq [c4:c7] (s) UC
 147500: system.cpu.icache: (CXL_Debug) Cache::handleAtomicReqMiss (2) pkt=ReadReq [120c4:120c7] (s) IF UC
 147500: system.l2: (CXL_Debug) Cache::handleAtomicReqMiss (2) pkt=ReadReq [120c4:120c7] (s) IF UC
 148000: system.cpu.icache: (CXL_Debug) Cache::handleAtomicReqMiss (2) pkt=ReadReq [120c8:120cb] (s) IF UC
 148000: system.l2: (CXL_Debug) Cache::handleAtomicReqMiss (2) pkt=ReadReq [120c8:120cb] (s) IF UC
 148500: system.cpu.icache: (CXL_Debug) Cache::handleAtomicReqMiss (2) pkt=ReadReq [120cc:120cf] (s) IF UC
 148500: system.l2: (CXL_Debug) Cache::handleAtomicReqMiss (2) pkt=ReadReq [120cc:120cf] (s) IF UC
 149000: system.cpu.icache: (CXL_Debug) Cache::handleAtomicReqMiss (2) pkt=ReadReq [120c0:120c3] (s) IF UC
 149000: system.l2: (CXL_Debug) Cache::handleAtomicReqMiss (2) pkt=ReadReq [120c0:120c3] (s) IF UC
 149000: system.cpu.dcache: (CXL_Debug) Cache::handleAtomicReqMiss pkt=WriteReq [c8:cb] (s) UC
 149000: system.l2: (CXL_Debug) Cache::handleAtomicReqMiss pkt=WriteReq [c8:cb] (s) UC
 150000: system.cpu.icache: (CXL_Debug) Cache::handleAtomicReqMiss (2) pkt=ReadReq [120c4:120c7] (s) IF UC
 150000: system.l2: (CXL_Debug) Cache::handleAtomicReqMiss (2) pkt=ReadReq [120c4:120c7] (s) IF UC
 150500: system.cpu.icache: (CXL_Debug) Cache::handleAtomicReqMiss (2) pkt=ReadReq [120c8:120cb] (s) IF UC
 150500: system.l2: (CXL_Debug) Cache::handleAtomicReqMiss (2) pkt=ReadReq [120c8:120cb] (s) IF UC
 151000: system.cpu.icache: (CXL_Debug) Cache::handleAtomicReqMiss (2) pkt=ReadReq [120cc:120cf] (s) IF UC
 151000: system.l2: (CXL_Debug) Cache::handleAtomicReqMiss (2) pkt=ReadReq [120cc:120cf] (s) IF UC
 151500: system.cpu.icache: (CXL_Debug) Cache::handleAtomicReqMiss (2) pkt=ReadReq [120c0:120c3] (s) IF UC
[...]
10233500: system.l2: (CXL_Debug) Cache::handleAtomicReqMiss (2) pkt=ReadReq [120f0:120f3] (s) IF UC
10233500: system.cpu.dcache: (CXL_Debug) Cache::handleAtomicReqMiss pkt=WriteReq [3fcc:3fcf] (s) UC
10233500: system.l2: (CXL_Debug) Cache::handleAtomicReqMiss pkt=WriteReq [3fcc:3fcf] (s) UC
10234500: system.cpu.icache: (CXL_Debug) Cache::handleAtomicReqMiss (2) pkt=ReadReq [120f4:120f7] (s) IF UC
10234500: system.l2: (CXL_Debug) Cache::handleAtomicReqMiss (2) pkt=ReadReq [120f4:120f7] (s) IF UC
10235000: system.cpu.icache: (CXL_Debug) Cache::handleAtomicReqMiss (2) pkt=ReadReq [120f8:120fb] (s) IF UC
10235000: system.l2: (CXL_Debug) Cache::handleAtomicReqMiss (2) pkt=ReadReq [120f8:120fb] (s) IF UC
10235500: system.cpu.icache: (CXL_Debug) Cache::handleAtomicReqMiss (2) pkt=ReadReq [120fc:120ff] (s) IF UC
10235500: system.l2: (CXL_Debug) Cache::handleAtomicReqMiss (2) pkt=ReadReq [120fc:120ff] (s) IF UC
10236000: system.cpu.icache: (CXL_Debug) Cache::handleAtomicReqMiss (2) pkt=ReadReq [120f0:120f3] (s) IF UC
10236000: system.l2: (CXL_Debug) Cache::handleAtomicReqMiss (2) pkt=ReadReq [120f0:120f3] (s) IF UC
10236000: system.cpu.dcache: (CXL_Debug) Cache::handleAtomicReqMiss pkt=WriteReq [3fd0:3fd3] (s) UC
10236000: system.l2: (CXL_Debug) Cache::handleAtomicReqMiss pkt=WriteReq [3fd0:3fd3] (s) UC
10237000: system.cpu.icache: (CXL_Debug) Cache::handleAtomicReqMiss (2) pkt=ReadReq [120f4:120f7] (s) IF UC
10237000: system.l2: (CXL_Debug) Cache::handleAtomicReqMiss (2) pkt=ReadReq [120f4:120f7] (s) IF UC
10237500: system.cpu.icache: (CXL_Debug) Cache::handleAtomicReqMiss (2) pkt=ReadReq [120f8:120fb] (s) IF UC
10237500: system.l2: (CXL_Debug) Cache::handleAtomicReqMiss (2) pkt=ReadReq [120f8:120fb] (s) IF UC
10238000: system.cpu.icache: (CXL_Debug) Cache::handleAtomicReqMiss (2) pkt=ReadReq [120fc:120ff] (s) IF UC
10238000: system.l2: (CXL_Debug) Cache::handleAtomicReqMiss (2) pkt=ReadReq [120fc:120ff] (s) IF UC
10238500: system.cpu.icache: (CXL_Debug) Cache::handleAtomicReqMiss (2) pkt=ReadReq [120f0:120f3] (s) IF UC
10238500: system.l2: (CXL_Debug) Cache::handleAtomicReqMiss (2) pkt=ReadReq [120f0:120f3] (s) IF UC
10238500: system.cpu.dcache: (CXL_Debug) Cache::handleAtomicReqMiss pkt=WriteReq [3fd4:3fd7] (s) UC
10238500: system.l2: (CXL_Debug) Cache::handleAtomicReqMiss pkt=WriteReq [3fd4:3fd7] (s) UC
10239500: system.cpu.icache: (CXL_Debug) Cache::handleAtomicReqMiss (2) pkt=ReadReq [120f4:120f7] (s) IF UC
10239500: system.l2: (CXL_Debug) Cache::handleAtomicReqMiss (2) pkt=ReadReq [120f4:120f7] (s) IF UC
10240000: system.cpu.icache: (CXL_Debug) Cache::handleAtomicReqMiss (2) pkt=ReadReq [120f8:120fb] (s) IF UC
10240000: system.l2: (CXL_Debug) Cache::handleAtomicReqMiss (2) pkt=ReadReq [120f8:120fb] (s) IF UC
10240500: system.cpu.icache: (CXL_Debug) Cache::handleAtomicReqMiss (2) pkt=ReadReq [120fc:120ff] (s) IF UC
10240500: system.l2: (CXL_Debug) Cache::handleAtomicReqMiss (2) pkt=ReadReq [120fc:120ff] (s) IF UC
10241000: system.cpu.icache: (CXL_Debug) Cache::handleAtomicReqMiss (2) pkt=ReadReq [120f0:120f3] (s) IF UC
10241000: system.l2: (CXL_Debug) Cache::handleAtomicReqMiss (2) pkt=ReadReq [120f0:120f3] (s) IF UC
10241000: system.cpu.dcache: (CXL_Debug) Cache::handleAtomicReqMiss pkt=WriteReq [3fd8:3fdb] (s) UC
10241000: system.l2: (CXL_Debug) Cache::handleAtomicReqMiss pkt=WriteReq [3fd8:3fdb] (s) UC
10242000: system.cpu.icache: (CXL_Debug) Cache::handleAtomicReqMiss (2) pkt=ReadReq [120f4:120f7] (s) IF UC
10242000: system.l2: (CXL_Debug) Cache::handleAtomicReqMiss (2) pkt=ReadReq [120f4:120f7] (s) IF UC
10242500: system.cpu.icache: (CXL_Debug) Cache::handleAtomicReqMiss (2) pkt=ReadReq [120f8:120fb] (s) IF UC
10242500: system.l2: (CXL_Debug) Cache::handleAtomicReqMiss (2) pkt=ReadReq [120f8:120fb] (s) IF UC
10243000: system.cpu.icache: (CXL_Debug) Cache::handleAtomicReqMiss (2) pkt=ReadReq [120fc:120ff] (s) IF UC
10243000: system.l2: (CXL_Debug) Cache::handleAtomicReqMiss (2) pkt=ReadReq [120fc:120ff] (s) IF UC
10243500: system.cpu.icache: (CXL_Debug) Cache::handleAtomicReqMiss (2) pkt=ReadReq [120f0:120f3] (s) IF UC
10243500: system.l2: (CXL_Debug) Cache::handleAtomicReqMiss (2) pkt=ReadReq [120f0:120f3] (s) IF UC
10243500: system.cpu.dcache: (CXL_Debug) Cache::handleAtomicReqMiss pkt=WriteReq [3fdc:3fdf] (s) UC
10243500: system.l2: (CXL_Debug) Cache::handleAtomicReqMiss pkt=WriteReq [3fdc:3fdf] (s) UC
10244500: system.cpu.icache: (CXL_Debug) Cache::handleAtomicReqMiss (2) pkt=ReadReq [120f4:120f7] (s) IF UC
10244500: system.l2: (CXL_Debug) Cache::handleAtomicReqMiss (2) pkt=ReadReq [120f4:120f7] (s) IF UC
10245000: system.cpu.icache: (CXL_Debug) Cache::handleAtomicReqMiss (2) pkt=ReadReq [120f8:120fb] (s) IF UC
10245000: system.l2: (CXL_Debug) Cache::handleAtomicReqMiss (2) pkt=ReadReq [120f8:120fb] (s) IF UC
10245500: system.cpu.icache: (CXL_Debug) Cache::handleAtomicReqMiss (2) pkt=ReadReq [120fc:120ff] (s) IF UC
10245500: system.l2: (CXL_Debug) Cache::handleAtomicReqMiss (2) pkt=ReadReq [120fc:120ff] (s) IF UC
10246000: system.cpu.icache: (CXL_Debug) Cache::handleAtomicReqMiss (2) pkt=ReadReq [120f0:120f3] (s) IF UC
10246000: system.l2: (CXL_Debug) Cache::handleAtomicReqMiss (2) pkt=ReadReq [120f0:120f3] (s) IF UC
10246000: system.cpu.dcache: (CXL_Debug) Cache::handleAtomicReqMiss pkt=WriteReq [3fe0:3fe3] (s) UC
10246000: system.l2: (CXL_Debug) Cache::handleAtomicReqMiss pkt=WriteReq [3fe0:3fe3] (s) UC
10247000: system.cpu.icache: (CXL_Debug) Cache::handleAtomicReqMiss (2) pkt=ReadReq [120f4:120f7] (s) IF UC
10247000: system.l2: (CXL_Debug) Cache::handleAtomicReqMiss (2) pkt=ReadReq [120f4:120f7] (s) IF UC
10247500: system.cpu.icache: (CXL_Debug) Cache::handleAtomicReqMiss (2) pkt=ReadReq [120f8:120fb] (s) IF UC
10247500: system.l2: (CXL_Debug) Cache::handleAtomicReqMiss (2) pkt=ReadReq [120f8:120fb] (s) IF UC
10248000: system.cpu.icache: (CXL_Debug) Cache::handleAtomicReqMiss (2) pkt=ReadReq [120fc:120ff] (s) IF UC
10248000: system.l2: (CXL_Debug) Cache::handleAtomicReqMiss (2) pkt=ReadReq [120fc:120ff] (s) IF UC
10248500: system.cpu.icache: (CXL_Debug) Cache::handleAtomicReqMiss (2) pkt=ReadReq [120f0:120f3] (s) IF UC
10248500: system.l2: (CXL_Debug) Cache::handleAtomicReqMiss (2) pkt=ReadReq [120f0:120f3] (s) IF UC
10248500: system.cpu.dcache: (CXL_Debug) Cache::handleAtomicReqMiss pkt=WriteReq [3fe4:3fe7] (s) UC
10248500: system.l2: (CXL_Debug) Cache::handleAtomicReqMiss pkt=WriteReq [3fe4:3fe7] (s) UC
10249500: system.cpu.icache: (CXL_Debug) Cache::handleAtomicReqMiss (2) pkt=ReadReq [120f4:120f7] (s) IF UC
10249500: system.l2: (CXL_Debug) Cache::handleAtomicReqMiss (2) pkt=ReadReq [120f4:120f7] (s) IF UC
10250000: system.cpu.icache: (CXL_Debug) Cache::handleAtomicReqMiss (2) pkt=ReadReq [120f8:120fb] (s) IF UC
10250000: system.l2: (CXL_Debug) Cache::handleAtomicReqMiss (2) pkt=ReadReq [120f8:120fb] (s) IF UC
10250500: system.cpu.icache: (CXL_Debug) Cache::handleAtomicReqMiss (2) pkt=ReadReq [120fc:120ff] (s) IF UC
10250500: system.l2: (CXL_Debug) Cache::handleAtomicReqMiss (2) pkt=ReadReq [120fc:120ff] (s) IF UC
10251000: system.cpu.icache: (CXL_Debug) Cache::handleAtomicReqMiss (2) pkt=ReadReq [120f0:120f3] (s) IF UC
10251000: system.l2: (CXL_Debug) Cache::handleAtomicReqMiss (2) pkt=ReadReq [120f0:120f3] (s) IF UC
10251000: system.cpu.dcache: (CXL_Debug) Cache::handleAtomicReqMiss pkt=WriteReq [3fe8:3feb] (s) UC
10251000: system.l2: (CXL_Debug) Cache::handleAtomicReqMiss pkt=WriteReq [3fe8:3feb] (s) UC
10252000: system.cpu.icache: (CXL_Debug) Cache::handleAtomicReqMiss (2) pkt=ReadReq [120f4:120f7] (s) IF UC
10252000: system.l2: (CXL_Debug) Cache::handleAtomicReqMiss (2) pkt=ReadReq [120f4:120f7] (s) IF UC
10252500: system.cpu.icache: (CXL_Debug) Cache::handleAtomicReqMiss (2) pkt=ReadReq [120f8:120fb] (s) IF UC
10252500: system.l2: (CXL_Debug) Cache::handleAtomicReqMiss (2) pkt=ReadReq [120f8:120fb] (s) IF UC
10253000: system.cpu.icache: (CXL_Debug) Cache::handleAtomicReqMiss (2) pkt=ReadReq [120fc:120ff] (s) IF UC
10253000: system.l2: (CXL_Debug) Cache::handleAtomicReqMiss (2) pkt=ReadReq [120fc:120ff] (s) IF UC
10253500: system.cpu.icache: (CXL_Debug) Cache::handleAtomicReqMiss (2) pkt=ReadReq [120f0:120f3] (s) IF UC
10253500: system.l2: (CXL_Debug) Cache::handleAtomicReqMiss (2) pkt=ReadReq [120f0:120f3] (s) IF UC
10253500: system.cpu.dcache: (CXL_Debug) Cache::handleAtomicReqMiss pkt=WriteReq [3fec:3fef] (s) UC
10253500: system.l2: (CXL_Debug) Cache::handleAtomicReqMiss pkt=WriteReq [3fec:3fef] (s) UC
10254500: system.cpu.icache: (CXL_Debug) Cache::handleAtomicReqMiss (2) pkt=ReadReq [120f4:120f7] (s) IF UC
10254500: system.l2: (CXL_Debug) Cache::handleAtomicReqMiss (2) pkt=ReadReq [120f4:120f7] (s) IF UC
10255000: system.cpu.icache: (CXL_Debug) Cache::handleAtomicReqMiss (2) pkt=ReadReq [120f8:120fb] (s) IF UC
10255000: system.l2: (CXL_Debug) Cache::handleAtomicReqMiss (2) pkt=ReadReq [120f8:120fb] (s) IF UC
10255500: system.cpu.icache: (CXL_Debug) Cache::handleAtomicReqMiss (2) pkt=ReadReq [120fc:120ff] (s) IF UC
10255500: system.l2: (CXL_Debug) Cache::handleAtomicReqMiss (2) pkt=ReadReq [120fc:120ff] (s) IF UC
10256000: system.cpu.icache: (CXL_Debug) Cache::handleAtomicReqMiss (2) pkt=ReadReq [120f0:120f3] (s) IF UC
10256000: system.l2: (CXL_Debug) Cache::handleAtomicReqMiss (2) pkt=ReadReq [120f0:120f3] (s) IF UC
10256000: system.cpu.dcache: (CXL_Debug) Cache::handleAtomicReqMiss pkt=WriteReq [3ff0:3ff3] (s) UC
10256000: system.l2: (CXL_Debug) Cache::handleAtomicReqMiss pkt=WriteReq [3ff0:3ff3] (s) UC
10257000: system.cpu.icache: (CXL_Debug) Cache::handleAtomicReqMiss (2) pkt=ReadReq [120f4:120f7] (s) IF UC
10257000: system.l2: (CXL_Debug) Cache::handleAtomicReqMiss (2) pkt=ReadReq [120f4:120f7] (s) IF UC
10257500: system.cpu.icache: (CXL_Debug) Cache::handleAtomicReqMiss (2) pkt=ReadReq [120f8:120fb] (s) IF UC
10257500: system.l2: (CXL_Debug) Cache::handleAtomicReqMiss (2) pkt=ReadReq [120f8:120fb] (s) IF UC
10258000: system.cpu.icache: (CXL_Debug) Cache::handleAtomicReqMiss (2) pkt=ReadReq [120fc:120ff] (s) IF UC
10258000: system.l2: (CXL_Debug) Cache::handleAtomicReqMiss (2) pkt=ReadReq [120fc:120ff] (s) IF UC
10258500: system.cpu.icache: (CXL_Debug) Cache::handleAtomicReqMiss (2) pkt=ReadReq [120f0:120f3] (s) IF UC
10258500: system.l2: (CXL_Debug) Cache::handleAtomicReqMiss (2) pkt=ReadReq [120f0:120f3] (s) IF UC
10258500: system.cpu.dcache: (CXL_Debug) Cache::handleAtomicReqMiss pkt=WriteReq [3ff4:3ff7] (s) UC
10258500: system.l2: (CXL_Debug) Cache::handleAtomicReqMiss pkt=WriteReq [3ff4:3ff7] (s) UC
10259500: system.cpu.icache: (CXL_Debug) Cache::handleAtomicReqMiss (2) pkt=ReadReq [120f4:120f7] (s) IF UC
10259500: system.l2: (CXL_Debug) Cache::handleAtomicReqMiss (2) pkt=ReadReq [120f4:120f7] (s) IF UC
10260000: system.cpu.icache: (CXL_Debug) Cache::handleAtomicReqMiss (2) pkt=ReadReq [120f8:120fb] (s) IF UC
10260000: system.l2: (CXL_Debug) Cache::handleAtomicReqMiss (2) pkt=ReadReq [120f8:120fb] (s) IF UC
10260500: system.cpu.icache: (CXL_Debug) Cache::handleAtomicReqMiss (2) pkt=ReadReq [120fc:120ff] (s) IF UC
10260500: system.l2: (CXL_Debug) Cache::handleAtomicReqMiss (2) pkt=ReadReq [120fc:120ff] (s) IF UC
10261000: system.cpu.icache: (CXL_Debug) Cache::handleAtomicReqMiss (2) pkt=ReadReq [120f0:120f3] (s) IF UC
10261000: system.l2: (CXL_Debug) Cache::handleAtomicReqMiss (2) pkt=ReadReq [120f0:120f3] (s) IF UC
10261000: system.cpu.dcache: (CXL_Debug) Cache::handleAtomicReqMiss pkt=WriteReq [3ff8:3ffb] (s) UC
10261000: system.l2: (CXL_Debug) Cache::handleAtomicReqMiss pkt=WriteReq [3ff8:3ffb] (s) UC
10262000: system.cpu.icache: (CXL_Debug) Cache::handleAtomicReqMiss (2) pkt=ReadReq [120f4:120f7] (s) IF UC
10262000: system.l2: (CXL_Debug) Cache::handleAtomicReqMiss (2) pkt=ReadReq [120f4:120f7] (s) IF UC
10262500: system.cpu.icache: (CXL_Debug) Cache::handleAtomicReqMiss (2) pkt=ReadReq [120f8:120fb] (s) IF UC
10262500: system.l2: (CXL_Debug) Cache::handleAtomicReqMiss (2) pkt=ReadReq [120f8:120fb] (s) IF UC
10263000: system.cpu.icache: (CXL_Debug) Cache::handleAtomicReqMiss (2) pkt=ReadReq [120fc:120ff] (s) IF UC
10263000: system.l2: (CXL_Debug) Cache::handleAtomicReqMiss (2) pkt=ReadReq [120fc:120ff] (s) IF UC
10263500: system.cpu.icache: (CXL_Debug) Cache::handleAtomicReqMiss (2) pkt=ReadReq [120f0:120f3] (s) IF UC
10263500: system.l2: (CXL_Debug) Cache::handleAtomicReqMiss (2) pkt=ReadReq [120f0:120f3] (s) IF UC
10263500: system.cpu.dcache: (CXL_Debug) Cache::handleAtomicReqMiss pkt=WriteReq [3ffc:3fff] (s) UC
10263500: system.l2: (CXL_Debug) Cache::handleAtomicReqMiss pkt=WriteReq [3ffc:3fff] (s) UC
10264500: system.cpu.icache: (CXL_Debug) Cache::handleAtomicReqMiss (2) pkt=ReadReq [120f4:120f7] (s) IF UC
10264500: system.l2: (CXL_Debug) Cache::handleAtomicReqMiss (2) pkt=ReadReq [120f4:120f7] (s) IF UC
10265000: system.cpu.icache: (CXL_Debug) Cache::handleAtomicReqMiss (2) pkt=ReadReq [120f8:120fb] (s) IF UC
10265000: system.l2: (CXL_Debug) Cache::handleAtomicReqMiss (2) pkt=ReadReq [120f8:120fb] (s) IF UC
10265500: system.cpu.icache: (CXL_Debug) Cache::handleAtomicReqMiss (2) pkt=ReadReq [120fc:120ff] (s) IF UC
10265500: system.l2: (CXL_Debug) Cache::handleAtomicReqMiss (2) pkt=ReadReq [120fc:120ff] (s) IF UC
10266000: system.cpu.icache: (CXL_Debug) Cache::handleAtomicReqMiss (2) pkt=ReadReq [12100:12103] (s) IF UC
10266000: system.l2: (CXL_Debug) Cache::handleAtomicReqMiss (2) pkt=ReadReq [12100:12103] (s) IF UC
10266500: system.cpu.icache: (CXL_Debug) Cache::handleAtomicReqMiss (2) pkt=ReadReq [12104:12107] (s) IF UC
10266500: system.l2: (CXL_Debug) Cache::handleAtomicReqMiss (2) pkt=ReadReq [12104:12107] (s) IF UC
10267000: system.cpu.icache: (CXL_Debug) Cache::handleAtomicReqMiss (2) pkt=ReadReq [12108:1210b] (s) IF UC
10267000: system.l2: (CXL_Debug) Cache::handleAtomicReqMiss (2) pkt=ReadReq [12108:1210b] (s) IF UC
10267500: system.cpu.icache: (CXL_Debug) Cache::handleAtomicReqMiss (2) pkt=ReadReq [1210c:1210f] (s) IF UC
10267500: system.l2: (CXL_Debug) Cache::handleAtomicReqMiss (2) pkt=ReadReq [1210c:1210f] (s) IF UC
10268000: system.cpu.icache: (CXL_Debug) Cache::handleAtomicReqMiss (2) pkt=ReadReq [12110:12113] (s) IF UC
10268000: system.l2: (CXL_Debug) Cache::handleAtomicReqMiss (2) pkt=ReadReq [12110:12113] (s) IF UC
10268500: system.cpu.icache: (CXL_Debug) Cache::handleAtomicReqMiss (2) pkt=ReadReq [12114:12117] (s) IF UC
10268500: system.l2: (CXL_Debug) Cache::handleAtomicReqMiss (2) pkt=ReadReq [12114:12117] (s) IF UC
10269000: system.cpu.icache: (CXL_Debug) Cache::handleAtomicReqMiss (2) pkt=ReadReq [12118:1211b] (s) IF UC
10269000: system.l2: (CXL_Debug) Cache::handleAtomicReqMiss (2) pkt=ReadReq [12118:1211b] (s) IF UC
10269500: system.cpu.icache: (CXL_Debug) Cache::handleAtomicReqMiss (2) pkt=ReadReq [1211c:1211f] (s) IF UC
10269500: system.l2: (CXL_Debug) Cache::handleAtomicReqMiss (2) pkt=ReadReq [1211c:1211f] (s) IF UC
10270000: system.l2: (CXL_Debug) Cache::handleAtomicReqMiss (2) pkt=ReadReq [0:3] (s) UC
10270000: system.cpu.icache: (CXL_Debug) Cache::handleAtomicReqMiss (2) pkt=ReadReq [12120:12123] IF
10270000: system.l2: (CXL_Debug) Cache::handleAtomicReqMiss (2) pkt=ReadCleanReq [12100:1213f] IF
10271500: system.cpu.icache: (CXL_Debug) Cache::handleAtomicReqMiss (2) pkt=ReadReq [12378:1237b] IF
10271500: system.l2: (CXL_Debug) Cache::handleAtomicReqMiss (2) pkt=ReadCleanReq [12340:1237f] IF
10271500: system.cpu.dcache: (CXL_Debug) Cache::handleAtomicReqMiss (2) pkt=WriteReq [54108:5410b]
10271500: system.l2: (CXL_Debug) Cache::handleAtomicReqMiss (2) pkt=ReadExReq [54100:5413f]
10271500: system.cpu.dcache: satisfyRequest write cacheblk -> state: e (M) writable: 1 readable: 1 dirty: 1 prefetched: 0 | tag: 0xa secure: 0 valid: 1 | set: 0x104 way: 0
10273000: system.cpu.icache: (CXL_Debug) Cache::handleAtomicReqMiss (2) pkt=ReadReq [12380:12383] IF
10273000: system.l2: (CXL_Debug) Cache::handleAtomicReqMiss (2) pkt=ReadCleanReq [12380:123bf] IF
10273500: system.cpu.dcache: (CXL_Debug) Cache::handleAtomicReqMiss (2) pkt=ReadReq [123d0:123d3]
10273500: system.l2: (CXL_Debug) Cache::handleAtomicReqMiss (2) pkt=ReadSharedReq [123c0:123ff]
10274000: system.cpu.dcache: satisfyRequest write cacheblk -> state: e (M) writable: 1 readable: 1 dirty: 1 prefetched: 0 | tag: 0xa secure: 0 valid: 1 | set: 0x104 way: 0
10275000: system.cpu.dcache: (CXL_Debug) Cache::handleAtomicReqMiss (2) pkt=WriteReq [540fc:540ff]
10275000: system.l2: (CXL_Debug) Cache::handleAtomicReqMiss (2) pkt=ReadExReq [540c0:540ff]
10275000: system.cpu.dcache: satisfyRequest write cacheblk -> state: e (M) writable: 1 readable: 1 dirty: 1 prefetched: 0 | tag: 0xa secure: 0 valid: 1 | set: 0x103 way: 0
10276000: system.cpu.dcache: satisfyRequest write cacheblk -> state: e (M) writable: 1 readable: 1 dirty: 1 prefetched: 0 | tag: 0xa secure: 0 valid: 1 | set: 0x103 way: 0
10277000: system.cpu.dcache: satisfyRequest write cacheblk -> state: e (M) writable: 1 readable: 1 dirty: 1 prefetched: 0 | tag: 0xa secure: 0 valid: 1 | set: 0x103 way: 0
10278000: system.cpu.dcache: satisfyRequest write cacheblk -> state: e (M) writable: 1 readable: 1 dirty: 1 prefetched: 0 | tag: 0xa secure: 0 valid: 1 | set: 0x103 way: 0
10279000: system.cpu.dcache: satisfyRequest write cacheblk -> state: e (M) writable: 1 readable: 1 dirty: 1 prefetched: 0 | tag: 0xa secure: 0 valid: 1 | set: 0x103 way: 0
10280500: system.l2: (CXL_Debug) Cache::handleAtomicReqMiss (2) pkt=ReadReq [2000:2003] (s) UC
10280500: system.cpu: AtomicSimpleCPU::sendPacket CPU issue Req to Mem pkt=WriteReq [80000000:80000000]
10280500: system.cpu.dcache: access for WriteReq [80000000:80000000] miss
10280500: system.cpu.dcache: (CXL_Debug) Cache::handleAtomicReqMiss (2) pkt=WriteReq [80000000:80000000]
10280500: system.l2: access for ReadExReq [80000000:8000003f] miss
10280500: system.l2: (CXL_Debug) Cache::handleAtomicReqMiss (2) pkt=ReadExReq [80000000:8000003f]
10280500: system.membus: Unable to find destination for [0x80000000:0x80000040], will use default port
10280500: system.Root_Complex.slave: RootComplex recvAtomic! pkt ReadExReq [80000000:8000003f], slaveID 0
10280500: system.Root_Complex: getMasterPort(by Addr) Try to get Port1 (1) Addr 80000000
10280500: system.Root_Complex: getMasterPort(by Addr) Try to get Port1 (2) Addr 80000000
10280500: system.Root_Complex: getMasterPort(by Addr) Try to get Port1 (3) Addr 80000000
10280500: system.Root_Complex: getMasterPort(by Addr) Try to get Port2 (1) Addr 80000000, base 0
10280500: system.Root_Complex: getMasterPort(by Addr) Try to get Port2 (2) Addr 80000000
10280500: system.Root_Complex: getMasterPort(by Addr) Try to get Port2 (3) Addr 80000000
10280500: system.Root_Complex: getMasterPort(by Addr) Try to get Port3 (1) Addr 80000000, base 0
10280500: system.Root_Complex: getMasterPort(by Addr) Try to get Port3 (2) Addr 80000000
10280500: system.Root_Complex: getMasterPort(by Addr) Try to get Port3 (3) Addr 80000000
10280500: system.Root_Complex: getMasterPort(by Addr) Port1
10280500: system.switch.slave: PciBridge::PciBridgeSlavePort::getAddrRanges. is upstream 1. is switch 1. slaveID 0
10280500: system.switch.slave: PciBridge::PciBridgeSlavePort::fill_ranges. membase 0, IOBase 0x2f000000, Bar0 0, Bar1 0
10280500: system.Root_Complex: getMasterPort(by Addr) Port2
10280500: system.Root_Complex: getMasterPort(by Addr) Port2 [0x40000000:0x40200000]
10280500: system.Root_Complex: getMasterPort(by Addr) Port2 [0x2f000000:0x2f020000]
10280500: system.Root_Complex: getMasterPort(by Addr) Port3
10280500: system.Root_Complex: getMasterPort(by Addr) Port3 [0x40000000:0x40200000]
10280500: system.Root_Complex: getMasterPort(by Addr) Port3 [0x2f000000:0x2f020000]
10280500: system.Root_Complex: getMasterPort(by Addr) Port DMA 0x80000000
10280500: system.Root_Complex.slave: (CXL_Debug) PciBridge::PciBridgeSlavePort::recvAtomic: Access to CXL Mem from Host CPU
10280500: system.iobus_dma: Unable to find destination for [0x80000000:0x80000040], will use default port
